data_global
_cell_length_a 10
_cell_length_b 25.62
_cell_length_c 4.26
_cell_angle_alpha 90
_cell_angle_beta 90
_cell_angle_gamma 90
_symmetry_space_group_name_H-M 'P -1'
loop_
_symmetry_equiv_pos_as_xyz
  'x,y,z'
loop_
_atom_site_label
_atom_site_fract_x
_atom_site_fract_y
_atom_site_fract_z
C 0.499999 0.236554 0.660559
C 0.5 0.283604 0.831769
C 0.499999 0.236554 0.339441
C 0.5 0.331587 0.666823
C 0.5 0.379905 0.833771
C 0.499999 0.283604 0.168231
C 0.5 0.331587 0.333177
C 0.5 0.427864 0.667421
C 0.5 0.475868 0.833305
C 0.5 0.379905 0.166229
C 0.5 0.427864 0.332579
C 0.5 0.524132 0.666695
C 0.500001 0.572136 0.83258
C 0.5 0.475868 0.166695
C 0.5 0.524132 0.333305
C 0.500001 0.620095 0.666227
C 0.500001 0.668413 0.833178
C 0.500001 0.572136 0.16742
C 0.500001 0.620095 0.333773
C 0.5 0.716396 0.66823
C 0.5 0.763446 0.839444
C 0.500001 0.668413 0.166822
C 0.5 0.716396 0.33177
C 0.5 0.763446 0.160556
H 0.5 0.199246 0.781963
H 0.499999 0.199246 0.218037
H 0.5 0.800755 0.718034
H 0.5 0.800755 0.281966
