data_AGNR_F_13
_audit_creation_method                 'DeviceStudio'
_symmetry_space_group_name_H-M         'PMMM'
_symmetry_Int_Tables_number            47
_symmetry_cell_setting                 Orthorhombic
loop_
_symmetry_equiv_pos_as_xyz
x,y,z
-x,-y,-z
-x,y,-z
x,-y,z
-x,-y,z
x,y,-z
x,-y,-z
-x,y,z
_cell_length_a                         10
_cell_length_b                         26.85
_cell_length_c                         4.26
_cell_angle_alpha                      90
_cell_angle_beta                       90
_cell_angle_gamma                      90
loop_
_atom_site_label
_atom_site_type_symbol
_atom_site_fract_x
_atom_site_fract_y
_atom_site_fract_z
C	C	0.5	0.225194	0.666667
C	C	0.5	0.270995	0.833333
C	C	0.5	0.316796	0.666667
C	C	0.5	0.362597	0.833333
C	C	0.5	0.408398	0.666667
C	C	0.5	0.454199	0.833333
C	C	0.5	0.5	0.666667
F	F	0.5	0.178155	0.766511
