data_ANTIDOT-14-6-6_1
_audit_creation_method                 'DeviceStudio'
_symmetry_space_group_name_H-M         'PMM2'
_symmetry_Int_Tables_number            25
_symmetry_cell_setting                 Orthorhombic
loop_
_symmetry_equiv_pos_as_xyz
x,y,z
-x,y,-z
-x,y,z
x,y,-z
_cell_length_a                         10
_cell_length_b                         30
_cell_length_c                         12.78
_cell_angle_alpha                      90
_cell_angle_beta                       90
_cell_angle_gamma                      90
loop_
_atom_site_label
_atom_site_type_symbol
_atom_site_fract_x
_atom_site_fract_y
_atom_site_fract_z
C	C	0.5	0.233553	0.222222
C	C	0.5	0.233553	0.555556
C	C	0.5	0.233553	0.888889
C	C	0.5	0.274545	0.277778
C	C	0.5	0.274545	0.611111
C	C	0.5	0.274545	0.944444
C	C	0.5	0.315537	0.222222
C	C	0.5	0.315537	0.555556
C	C	0.5	0.315537	0.888889
C	C	0.5	0.356528	0.277778
C	C	0.5	0.356528	0.611111
C	C	0.5	0.356528	0.944444
C	C	0.5	0.39752	0.222222
C	C	0.5	0.39752	0.555556
C	C	0.5	0.39752	0.888889
C	C	0.5	0.438512	0.277778
C	C	0.5	0.438512	0.611111
C	C	0.5	0.438512	0.944444
C	C	0.5	0.479504	0.222222
C	C	0.5	0.479504	0.888889
C	C	0.5	0.520496	0.277778
C	C	0.5	0.520496	0.944444
C	C	0.5	0.561488	0.222222
C	C	0.5	0.561488	0.888889
C	C	0.5	0.60248	0.277778
C	C	0.5	0.60248	0.611111
C	C	0.5	0.60248	0.944444
C	C	0.5	0.643472	0.222222
C	C	0.5	0.643472	0.555556
C	C	0.5	0.643472	0.888889
C	C	0.5	0.684463	0.277778
C	C	0.5	0.684463	0.611111
C	C	0.5	0.684463	0.944444
C	C	0.5	0.725455	0.222222
C	C	0.5	0.725455	0.555556
C	C	0.5	0.725455	0.888889
C	C	0.5	0.766447	0.277778
C	C	0.5	0.766447	0.611111
C	C	0.5	0.766447	0.944444
H	H	0.5	0.202087	0.264867
H	H	0.5	0.202087	0.5982
H	H	0.5	0.202087	0.931534
H	H	0.5	0.797913	0.235133
H	H	0.5	0.797913	0.568466
H	H	0.5	0.797913	0.9018
H	H	0.5	0.469978	0.568466
H	H	0.5	0.520496	0.363067
H	H	0.5	0.571014	0.568466
