data_ANTIDOT-13-6-24
_audit_creation_method                 'DeviceStudio'
_symmetry_space_group_name_H-M         'PMMM'
_symmetry_Int_Tables_number            47
_symmetry_cell_setting                 Orthorhombic
loop_
_symmetry_equiv_pos_as_xyz
x,y,z
-x,-y,-z
-x,y,-z
x,-y,z
x,-y,-z
-x,y,z
-x,-y,z
x,y,-z
_cell_length_a                         10
_cell_length_b                         30
_cell_length_c                         12.78
_cell_angle_alpha                      90
_cell_angle_beta                       90
_cell_angle_gamma                      90
loop_
_atom_site_label
_atom_site_type_symbol
_atom_site_fract_x
_atom_site_fract_y
_atom_site_fract_z
C	C	0.5	0.254049	0.0555554
C	C	0.5	0.254049	0.388889
C	C	0.5	0.254049	0.722222
C	C	0.5	0.295041	0.111111
C	C	0.5	0.295041	0.444445
C	C	0.5	0.295041	0.777778
C	C	0.5	0.336033	0.0555554
C	C	0.5	0.336033	0.388889
C	C	0.5	0.336033	0.722222
C	C	0.5	0.377024	0.111111
C	C	0.5	0.377024	0.777778
C	C	0.5	0.418016	0.0555554
C	C	0.5	0.459008	0.111111
C	C	0.5	0.5	0.0555554
H	H	0.5	0.222583	0.0981997
H	H	0.5	0.222583	0.431534
H	H	0.5	0.222583	0.764867
H	H	0.5	0.367498	0.431534
H	H	0.5	0.40849	0.735133
H	H	0.5	0.459008	0.196401
