data_ANTIDOT-14-4-6_1
_audit_creation_method                 'DeviceStudio'
_symmetry_space_group_name_H-M         'PMM2'
_symmetry_Int_Tables_number            25
_symmetry_cell_setting                 Orthorhombic
loop_
_symmetry_equiv_pos_as_xyz
x,y,z
-x,y,-z
x,y,-z
-x,y,z
_cell_length_a                         10
_cell_length_b                         30
_cell_length_c                         8.52
_cell_angle_alpha                      90
_cell_angle_beta                       90
_cell_angle_gamma                      90
loop_
_atom_site_label
_atom_site_type_symbol
_atom_site_fract_x
_atom_site_fract_y
_atom_site_fract_z
C	C	0.5	0.233553	0.333333
C	C	0.5	0.233553	0.833333
C	C	0.5	0.274545	0.416667
C	C	0.5	0.274545	0.916667
C	C	0.5	0.315537	0.333333
C	C	0.5	0.315537	0.833333
C	C	0.5	0.356528	0.416667
C	C	0.5	0.356528	0.916667
C	C	0.5	0.39752	0.333333
C	C	0.5	0.39752	0.833333
C	C	0.5	0.438512	0.416667
C	C	0.5	0.438512	0.916667
C	C	0.5	0.479504	0.333333
C	C	0.5	0.479504	0.833333
C	C	0.5	0.520496	0.916667
C	C	0.5	0.561488	0.833333
C	C	0.5	0.60248	0.916667
C	C	0.5	0.643472	0.333333
C	C	0.5	0.643472	0.833333
C	C	0.5	0.684463	0.416667
C	C	0.5	0.684463	0.916667
C	C	0.5	0.725455	0.333333
C	C	0.5	0.725455	0.833333
C	C	0.5	0.766447	0.416667
C	C	0.5	0.766447	0.916667
H	H	0.5	0.202087	0.3973
H	H	0.5	0.202087	0.8973
H	H	0.5	0.797913	0.3527
H	H	0.5	0.797913	0.8527
H	H	0.5	0.51097	0.3973
H	H	0.5	0.561488	0.705399
H	H	0.5	0.612006	0.3973
