data_global
_cell_length_a 10
_cell_length_b 45.3
_cell_length_c 4.26
_cell_angle_alpha 90
_cell_angle_beta 90
_cell_angle_gamma 90
_symmetry_space_group_name_H-M 'P -1'
loop_
_symmetry_equiv_pos_as_xyz
  'x,y,z'
loop_
_atom_site_label
_atom_site_fract_x
_atom_site_fract_y
_atom_site_fract_z
C 0.5 0.133795 0.660364
C 0.5 0.160424 0.832035
C 0.5 0.133795 0.339636
C 0.5 0.187553 0.666898
C 0.5 0.214847 0.83393
C 0.5 0.160424 0.167965
C 0.5 0.187553 0.333102
C 0.5 0.241987 0.667085
C 0.5 0.269111 0.833193
C 0.5 0.214847 0.166071
C 0.5 0.241987 0.332915
C 0.5 0.296333 0.666472
C 0.5 0.323512 0.8331
C 0.5 0.269111 0.166807
C 0.5 0.296333 0.333528
C 0.5 0.35065 0.666764
C 0.5 0.377834 0.833492
C 0.5 0.323512 0.1669
C 0.5 0.350651 0.333237
C 0.5 0.404994 0.666792
C 0.5 0.432118 0.833254
C 0.5 0.377834 0.166508
C 0.5 0.404994 0.333208
C 0.5 0.459281 0.666528
C 0.5 0.486439 0.833239
C 0.5 0.432118 0.166747
C 0.5 0.459281 0.333472
C 0.5 0.513561 0.666761
C 0.5 0.540719 0.833472
C 0.5 0.486439 0.166761
C 0.5 0.513561 0.333239
C 0.5 0.567882 0.666747
C 0.5 0.595005 0.833208
C 0.5 0.540719 0.166528
C 0.5 0.567882 0.333253
C 0.5 0.622165 0.666508
C 0.5 0.649349 0.833236
C 0.5 0.595005 0.166792
C 0.5 0.622165 0.333492
C 0.5 0.676488 0.666901
C 0.5 0.703667 0.833528
C 0.5 0.649349 0.166764
C 0.5 0.676488 0.333099
C 0.5 0.730889 0.666807
C 0.5 0.758013 0.832915
C 0.5 0.703667 0.166472
C 0.5 0.730889 0.333193
C 0.5 0.785153 0.66607
C 0.5 0.812447 0.833102
C 0.5 0.758013 0.167085
C 0.5 0.785153 0.33393
C 0.5 0.839577 0.667965
C 0.5 0.866206 0.839639
C 0.5 0.812447 0.166898
C 0.5 0.839577 0.332035
C 0.5 0.866206 0.16036
H 0.5 0.1127 0.781743
H 0.5 0.1127 0.218258
H 0.5 0.8873 0.718257
H 0.5 0.8873 0.281743
