data_global
_cell_length_a 10
_cell_length_b 30
_cell_length_c 12.78
_cell_angle_alpha 90
_cell_angle_beta 90
_cell_angle_gamma 90
_symmetry_space_group_name_H-M 'P -1'
loop_
_symmetry_equiv_pos_as_xyz
  'x,y,z'
loop_
_atom_site_label
_atom_site_fract_x
_atom_site_fract_y
_atom_site_fract_z
C 0.5 0.247518 0.0531494
C 0.5 0.287636 0.109132
C 0.5 0.329248 0.0553253
C 0.5 0.370874 0.110977
C 0.5 0.413224 0.0553115
C 0.5 0.456063 0.106719
C 0.5 0.5 0.0545583
C 0.5 0.543937 0.106718
C 0.5 0.586776 0.0553112
C 0.5 0.629125 0.110979
C 0.5 0.670752 0.0553269
C 0.5 0.712364 0.109132
C 0.5 0.752481 0.0531523
C 0.5 0.240972 0.382076
C 0.5 0.280118 0.443342
C 0.5 0.244259 0.275279
C 0.5 0.321176 0.387497
C 0.5 0.359158 0.448192
C 0.5 0.285791 0.220751
C 0.5 0.325847 0.276711
C 0.5 0.368942 0.222034
C 0.5 0.411767 0.266713
C 0.5 0.45111 0.21442
C 0.5 0.640843 0.448193
C 0.5 0.54889 0.214418
C 0.5 0.588232 0.266714
C 0.5 0.678824 0.387498
C 0.5 0.719883 0.443342
C 0.5 0.631058 0.222035
C 0.5 0.674153 0.276714
C 0.5 0.759029 0.382073
C 0.5 0.714208 0.220751
C 0.5 0.75574 0.275276
C 0.5 0.244259 0.724721
C 0.5 0.285791 0.779249
C 0.5 0.240972 0.617924
C 0.5 0.325847 0.723289
C 0.5 0.368943 0.777967
C 0.5 0.280119 0.556658
C 0.499999 0.321177 0.612503
C 0.5 0.411767 0.733286
C 0.5 0.451111 0.785581
C 0.499999 0.359158 0.551808
C 0.5 0.548889 0.785583
C 0.5 0.588233 0.733285
C 0.5 0.631058 0.777965
C 0.5 0.674154 0.723286
C 0.5 0.714209 0.779249
C 0.500001 0.640844 0.551808
C 0.5 0.678824 0.612502
C 0.5 0.75574 0.724723
C 0.5 0.719883 0.556658
C 0.5 0.759029 0.617927
C 0.5 0.247518 0.94685
C 0.5 0.287636 0.890868
C 0.5 0.329248 0.944675
C 0.5 0.370874 0.889023
C 0.5 0.413224 0.944689
C 0.5 0.456063 0.89328
C 0.5 0.5 0.945442
C 0.5 0.543938 0.893281
C 0.5 0.586776 0.944688
C 0.5 0.629126 0.889021
C 0.5 0.670752 0.944673
C 0.5 0.712364 0.890868
C 0.5 0.752481 0.946848
H 0.5 0.21576 0.0936273
H 0.5 0.784239 0.0936279
H 0.5 0.208085 0.418162
H 0.499999 0.213276 0.231459
H 0.5 0.391377 0.416929
H 0.5 0.420024 0.34752
H 0.499999 0.478234 0.267885
H 0.500001 0.608624 0.416929
H 0.5 0.521765 0.267879
H 0.499999 0.579976 0.347522
H 0.5 0.791918 0.418151
H 0.5 0.78672 0.231451
H 0.5 0.213276 0.768542
H 0.500001 0.208085 0.581839
H 0.5 0.420024 0.65248
H 0.499999 0.478234 0.732114
H 0.499998 0.391378 0.58307
H 0.500001 0.521765 0.732121
H 0.5 0.579976 0.652478
H 0.500001 0.608624 0.583073
H 0.5 0.786721 0.768548
H 0.5 0.791918 0.581848
H 0.5 0.21576 0.906372
H 0.5 0.78424 0.906374
