data_global
_cell_length_a 10
_cell_length_b 33
_cell_length_c 4.26
_cell_angle_alpha 90
_cell_angle_beta 90
_cell_angle_gamma 90
_symmetry_space_group_name_H-M 'P -1'
loop_
_symmetry_equiv_pos_as_xyz
  'x,y,z'
loop_
_atom_site_label
_atom_site_fract_x
_atom_site_fract_y
_atom_site_fract_z
C 0.499999 0.18366 0.660477
C 0.499999 0.220185 0.831873
C 0.499999 0.18366 0.339522
C 0.499999 0.257428 0.666851
C 0.5 0.294912 0.833831
C 0.499999 0.220185 0.168126
C 0.499999 0.257428 0.333149
C 0.500001 0.332139 0.667242
C 0.500001 0.36938 0.833264
C 0.5 0.294912 0.166168
C 0.500001 0.332139 0.332758
C 0.500001 0.406772 0.666596
C 0.500001 0.444049 0.832891
C 0.500001 0.36938 0.166735
C 0.500001 0.406772 0.333404
C 0.5 0.481317 0.666668
C 0.5 0.518684 0.833332
C 0.500001 0.444049 0.167109
C 0.5 0.481317 0.333332
C 0.5 0.555952 0.667109
C 0.500001 0.593228 0.833403
C 0.5 0.518684 0.166668
C 0.5 0.555952 0.332891
C 0.5 0.630621 0.666735
C 0.5 0.667861 0.832758
C 0.500001 0.593228 0.166597
C 0.500001 0.630621 0.333265
C 0.5 0.705088 0.666168
C 0.5 0.742571 0.833149
C 0.5 0.667861 0.167242
C 0.5 0.705088 0.333832
C 0.499999 0.779814 0.668126
C 0.499999 0.816339 0.839524
C 0.5 0.742571 0.166851
C 0.499999 0.779814 0.331874
C 0.499999 0.816339 0.160476
H 0.5 0.154707 0.781914
H 0.5 0.154707 0.218085
H 0.499999 0.845292 0.718085
H 0.499999 0.845292 0.281915
