data_global
_cell_length_a 10
_cell_length_b 44.07
_cell_length_c 4.26
_cell_angle_alpha 90
_cell_angle_beta 90
_cell_angle_gamma 90
_symmetry_space_group_name_H-M 'P -1'
loop_
_symmetry_equiv_pos_as_xyz
  'x,y,z'
loop_
_atom_site_label
_atom_site_fract_x
_atom_site_fract_y
_atom_site_fract_z
C 0.5 0.137544 0.660431
C 0.5 0.164902 0.831942
C 0.5 0.137543 0.33957
C 0.5 0.192791 0.666866
C 0.5 0.220852 0.833859
C 0.5 0.164902 0.168058
C 0.5 0.192791 0.333134
C 0.5 0.248734 0.667177
C 0.5 0.276621 0.833232
C 0.5 0.220852 0.166141
C 0.5 0.248735 0.332823
C 0.5 0.304611 0.66656
C 0.5 0.332532 0.832996
C 0.5 0.276621 0.166768
C 0.5 0.304611 0.33344
C 0.5 0.360435 0.666712
C 0.5 0.388387 0.83339
C 0.5 0.332532 0.167004
C 0.5 0.360435 0.333288
C 0.5 0.416285 0.666907
C 0.5 0.444175 0.833328
C 0.5 0.388387 0.16661
C 0.5 0.416285 0.333093
C 0.5 0.472108 0.666646
C 0.5 0.5 0.833109
C 0.5 0.444175 0.166672
C 0.5 0.472108 0.333354
C 0.5 0.527892 0.666646
C 0.5 0.555825 0.833328
C 0.5 0.5 0.166891
C 0.5 0.527892 0.333354
C 0.5 0.583715 0.666906
C 0.5 0.611613 0.83339
C 0.5 0.555825 0.166672
C 0.5 0.583715 0.333094
C 0.5 0.639565 0.666712
C 0.5 0.667468 0.832996
C 0.5 0.611613 0.16661
C 0.5 0.639565 0.333288
C 0.5 0.695389 0.66656
C 0.5 0.723379 0.833232
C 0.5 0.667468 0.167004
C 0.5 0.695389 0.33344
C 0.5 0.751265 0.667177
C 0.5 0.779148 0.833858
C 0.5 0.723379 0.166768
C 0.5 0.751265 0.332823
C 0.5 0.807209 0.666868
C 0.5 0.835098 0.831941
C 0.5 0.779148 0.166142
C 0.5 0.80721 0.333132
C 0.5 0.862457 0.660436
C 0.5 0.835098 0.168059
C 0.5 0.862457 0.339564
H 0.5 0.115859 0.781813
H 0.5 0.115859 0.218188
H 0.5 0.884141 0.781811
H 0.5 0.884141 0.218189
