data_global
_cell_length_a 10
_cell_length_b 30
_cell_length_c 21.3
_cell_angle_alpha 90
_cell_angle_beta 90
_cell_angle_gamma 90
_symmetry_space_group_name_H-M 'P -1'
loop_
_symmetry_equiv_pos_as_xyz
  'x,y,z'
loop_
_atom_site_label
_atom_site_fract_x
_atom_site_fract_y
_atom_site_fract_z
C 0.5 0.336033 0.333333
C 0.5 0.336033 0.533333
C 0.5 0.336033 0.733333
C 0.5 0.377024 0.166667
C 0.5 0.377024 0.366667
C 0.5 0.377024 0.566667
C 0.5 0.377024 0.766667
C 0.5 0.377024 0.966667
C 0.5 0.336033 0.266667
C 0.5 0.336033 0.466667
C 0.5 0.336033 0.666667
C 0.5 0.418016 0.133333
C 0.5 0.418016 0.333333
C 0.5 0.418016 0.533333
C 0.5 0.418016 0.733333
C 0.5 0.418016 0.933333
C 0.5 0.459008 0.166667
C 0.5 0.459008 0.366667
C 0.5 0.459008 0.566667
C 0.5 0.459008 0.766667
C 0.5 0.459008 0.966667
C 0.5 0.377024 0.0333333
C 0.5 0.377024 0.233333
C 0.5 0.377024 0.433333
C 0.5 0.377024 0.633333
C 0.5 0.377024 0.833333
C 0.5 0.418016 0.0666667
C 0.5 0.418016 0.266667
C 0.5 0.418016 0.466667
C 0.5 0.418016 0.666667
C 0.5 0.418016 0.866667
C 0.5 0.5 0.133333
C 0.5 0.5 0.333333
C 0.5 0.5 0.533333
C 0.5 0.5 0.733333
C 0.5 0.5 0.933333
C 0.5 0.540992 0.166667
C 0.5 0.540992 0.366667
C 0.5 0.540992 0.566667
C 0.5 0.540992 0.766667
C 0.5 0.540992 0.966667
C 0.5 0.459008 0.0333333
C 0.5 0.459008 0.233333
C 0.5 0.459008 0.433333
C 0.5 0.459008 0.633333
C 0.5 0.459008 0.833333
C 0.5 0.5 0.0666667
C 0.5 0.5 0.266667
C 0.5 0.5 0.466667
C 0.5 0.5 0.666667
C 0.5 0.5 0.866667
C 0.5 0.581984 0.133333
C 0.5 0.581984 0.333333
C 0.5 0.581984 0.533333
C 0.5 0.581984 0.733333
C 0.5 0.581984 0.933333
C 0.5 0.622976 0.166667
C 0.5 0.622976 0.366667
C 0.5 0.622976 0.566667
C 0.5 0.622976 0.766667
C 0.5 0.622976 0.966667
C 0.5 0.540992 0.0333333
C 0.5 0.540992 0.233333
C 0.5 0.540992 0.433333
C 0.5 0.540992 0.633333
C 0.5 0.540992 0.833333
C 0.5 0.581984 0.0666667
C 0.5 0.581984 0.266667
C 0.5 0.581984 0.466667
C 0.5 0.581984 0.666667
C 0.5 0.581984 0.866667
C 0.5 0.663967 0.333333
C 0.5 0.663967 0.533333
C 0.5 0.663967 0.733333
C 0.5 0.622976 0.0333333
C 0.5 0.622976 0.233333
C 0.5 0.622976 0.433333
C 0.5 0.622976 0.633333
C 0.5 0.622976 0.833333
C 0.5 0.663967 0.266667
C 0.5 0.663967 0.466667
C 0.5 0.663967 0.666667
H 0.5 0.304567 0.35892
H 0.5 0.304567 0.55892
H 0.5 0.304567 0.75892
H 0.5 0.304567 0.24108
H 0.5 0.304567 0.44108
H 0.5 0.304567 0.64108
H 0.5 0.695433 0.35892
H 0.5 0.695433 0.55892
H 0.5 0.695433 0.75892
H 0.5 0.695433 0.24108
H 0.5 0.695433 0.44108
H 0.5 0.695433 0.64108
H 0.5 0.345559 0.14108
H 0.5 0.345559 0.94108
H 0.5 0.345559 0.0589202
H 0.5 0.345559 0.85892
H 0.5 0.654441 0.14108
H 0.5 0.654441 0.94108
H 0.5 0.654441 0.0589202
H 0.5 0.654441 0.85892
