data_global
_cell_length_a 10
_cell_length_b 30
_cell_length_c 17.04
_cell_angle_alpha 90
_cell_angle_beta 90
_cell_angle_gamma 90
_symmetry_space_group_name_H-M 'P -1'
loop_
_symmetry_equiv_pos_as_xyz
  'x,y,z'
loop_
_atom_site_label
_atom_site_fract_x
_atom_site_fract_y
_atom_site_fract_z
C 0.5 0.211647 0.416667
C 0.5 0.211647 0.666667
C 0.5 0.252639 0.458333
C 0.5 0.252639 0.708333
C 0.5 0.211647 0.333333
C 0.5 0.211647 0.583333
C 0.5 0.293631 0.416667
C 0.5 0.293631 0.666667
C 0.5 0.334622 0.208333
C 0.5 0.334622 0.458333
C 0.5 0.334622 0.708333
C 0.5 0.252639 0.291667
C 0.5 0.252639 0.541667
C 0.5 0.293631 0.333333
C 0.5 0.293631 0.583333
C 0.5 0.375614 0.166667
C 0.5 0.375614 0.416667
C 0.5 0.375614 0.666667
C 0.5 0.375614 0.916667
C 0.5 0.416606 0.208333
C 0.5 0.416606 0.458333
C 0.5 0.416606 0.708333
C 0.5 0.416606 0.958333
C 0.5 0.334622 0.291667
C 0.5 0.334622 0.541667
C 0.5 0.334622 0.791667
C 0.5 0.375614 0.0833333
C 0.5 0.375614 0.333333
C 0.5 0.375614 0.583333
C 0.5 0.375614 0.833333
C 0.5 0.457598 0.166667
C 0.5 0.457598 0.416667
C 0.5 0.457598 0.666667
C 0.5 0.457598 0.916667
C 0.5 0.49859 0.208333
C 0.5 0.49859 0.458333
C 0.5 0.49859 0.708333
C 0.5 0.49859 0.958333
C 0.5 0.416606 0.0416667
C 0.5 0.416606 0.291667
C 0.5 0.416606 0.541667
C 0.5 0.416606 0.791667
C 0.5 0.457598 0.0833333
C 0.5 0.457598 0.333333
C 0.5 0.457598 0.583333
C 0.5 0.457598 0.833333
C 0.5 0.539582 0.166667
C 0.5 0.539582 0.416667
C 0.5 0.539582 0.666667
C 0.5 0.539582 0.916667
C 0.5 0.580574 0.208333
C 0.5 0.580574 0.458333
C 0.5 0.580574 0.708333
C 0.5 0.580574 0.958333
C 0.5 0.49859 0.0416667
C 0.5 0.49859 0.291667
C 0.5 0.49859 0.541667
C 0.5 0.49859 0.791667
C 0.5 0.539582 0.0833333
C 0.5 0.539582 0.333333
C 0.5 0.539582 0.583333
C 0.5 0.539582 0.833333
C 0.5 0.621566 0.166667
C 0.5 0.621566 0.416667
C 0.5 0.621566 0.666667
C 0.5 0.621566 0.916667
C 0.5 0.662557 0.208333
C 0.5 0.662557 0.458333
C 0.5 0.662557 0.708333
C 0.5 0.580574 0.0416667
C 0.5 0.580574 0.291667
C 0.5 0.580574 0.541667
C 0.5 0.580574 0.791667
C 0.5 0.621566 0.0833333
C 0.5 0.621566 0.333333
C 0.5 0.621566 0.583333
C 0.5 0.621566 0.833333
C 0.5 0.703549 0.416667
C 0.5 0.703549 0.666667
C 0.5 0.744541 0.458333
C 0.5 0.744541 0.708333
C 0.5 0.662557 0.291667
C 0.5 0.662557 0.541667
C 0.5 0.662557 0.791667
C 0.5 0.703549 0.333333
C 0.5 0.703549 0.583333
C 0.5 0.785533 0.416667
C 0.5 0.785533 0.666667
C 0.5 0.744541 0.291667
C 0.5 0.744541 0.541667
C 0.5 0.785533 0.333333
C 0.5 0.785533 0.583333
H 0.5 0.180181 0.44865
H 0.5 0.180181 0.69865
H 0.5 0.180181 0.30135
H 0.5 0.180181 0.55135
H 0.5 0.816999 0.44865
H 0.5 0.816999 0.69865
H 0.5 0.816999 0.30135
H 0.5 0.816999 0.55135
H 0.5 0.252639 0.7723
H 0.5 0.303157 0.17635
H 0.5 0.252639 0.2277
H 0.5 0.344149 0.94865
H 0.5 0.303157 0.82365
H 0.5 0.344149 0.0513498
H 0.5 0.653031 0.94865
H 0.5 0.694023 0.17635
H 0.5 0.653031 0.0513498
H 0.5 0.744541 0.7723
H 0.5 0.694023 0.82365
H 0.5 0.744541 0.2277
