data_global
_cell_length_a 10
_cell_length_b 30
_cell_length_c 17.04
_cell_angle_alpha 90
_cell_angle_beta 90
_cell_angle_gamma 90
_symmetry_space_group_name_H-M 'P -1'
loop_
_symmetry_equiv_pos_as_xyz
  'x,y,z'
loop_
_atom_site_label
_atom_site_fract_x
_atom_site_fract_y
_atom_site_fract_z
C 0.5 0.295041 0.416667
C 0.5 0.295041 0.666667
C 0.5 0.336033 0.458333
C 0.5 0.336033 0.708333
C 0.5 0.295041 0.333333
C 0.5 0.295041 0.583333
C 0.5 0.377024 0.166667
C 0.5 0.377024 0.416667
C 0.5 0.377024 0.666667
C 0.5 0.377024 0.916667
C 0.5 0.418016 0.208333
C 0.5 0.418016 0.458333
C 0.5 0.418016 0.708333
C 0.5 0.418016 0.958333
C 0.5 0.336033 0.291667
C 0.5 0.336033 0.541667
C 0.5 0.377024 0.0833333
C 0.5 0.377024 0.333333
C 0.5 0.377024 0.583333
C 0.5 0.377024 0.833333
C 0.5 0.459008 0.166667
C 0.5 0.459008 0.416667
C 0.5 0.459008 0.666667
C 0.5 0.459008 0.916667
C 0.5 0.5 0.208333
C 0.5 0.5 0.458333
C 0.5 0.5 0.708333
C 0.5 0.5 0.958333
C 0.5 0.418016 0.0416667
C 0.5 0.418016 0.291667
C 0.5 0.418016 0.541667
C 0.5 0.418016 0.791667
C 0.5 0.459008 0.0833333
C 0.5 0.459008 0.333333
C 0.5 0.459008 0.583333
C 0.5 0.459008 0.833333
C 0.5 0.540992 0.166667
C 0.5 0.540992 0.416667
C 0.5 0.540992 0.666667
C 0.5 0.540992 0.916667
C 0.5 0.581984 0.208333
C 0.5 0.581984 0.458333
C 0.5 0.581984 0.708333
C 0.5 0.581984 0.958333
C 0.5 0.5 0.0416667
C 0.5 0.5 0.291667
C 0.5 0.5 0.541667
C 0.5 0.5 0.791667
C 0.5 0.540992 0.0833333
C 0.5 0.540992 0.333333
C 0.5 0.540992 0.583333
C 0.5 0.540992 0.833333
C 0.5 0.622976 0.166667
C 0.5 0.622976 0.416667
C 0.5 0.622976 0.666667
C 0.5 0.622976 0.916667
C 0.5 0.663967 0.458333
C 0.5 0.663967 0.708333
C 0.5 0.581984 0.0416667
C 0.5 0.581984 0.291667
C 0.5 0.581984 0.541667
C 0.5 0.581984 0.791667
C 0.5 0.622976 0.0833333
C 0.5 0.622976 0.333333
C 0.5 0.622976 0.583333
C 0.5 0.622976 0.833333
C 0.5 0.704959 0.416667
C 0.5 0.704959 0.666667
C 0.5 0.663967 0.291667
C 0.5 0.663967 0.541667
C 0.5 0.704959 0.333333
C 0.5 0.704959 0.583333
H 0.5 0.263575 0.44865
H 0.5 0.263575 0.69865
H 0.5 0.263575 0.30135
H 0.5 0.263575 0.55135
H 0.5 0.736425 0.44865
H 0.5 0.736425 0.69865
H 0.5 0.736425 0.30135
H 0.5 0.736425 0.55135
H 0.5 0.336033 0.7723
H 0.5 0.345559 0.19865
H 0.5 0.345559 0.94865
H 0.5 0.336033 0.2277
H 0.5 0.345559 0.0513498
H 0.5 0.345559 0.80135
H 0.5 0.654441 0.19865
H 0.5 0.654441 0.94865
H 0.5 0.663967 0.7723
H 0.5 0.654441 0.0513498
H 0.5 0.654441 0.80135
H 0.5 0.663967 0.2277
