data_global
_cell_length_a 10
_cell_length_b 30
_cell_length_c 17.04
_cell_angle_alpha 90
_cell_angle_beta 90
_cell_angle_gamma 90
_symmetry_space_group_name_H-M 'P -1'
loop_
_symmetry_equiv_pos_as_xyz
  'x,y,z'
loop_
_atom_site_label
_atom_site_fract_x
_atom_site_fract_y
_atom_site_fract_z
C 0.5 0.212144 0.409986
C 0.5 0.212323 0.662738
C 0.5 0.252027 0.452922
C 0.5 0.252455 0.703181
C 0.5 0.212323 0.328567
C 0.5 0.212144 0.581319
C 0.5 0.293356 0.411731
C 0.5 0.293274 0.663127
C 0.5 0.337084 0.20462
C 0.5 0.33486 0.45416
C 0.5 0.33548 0.705287
C 0.5 0.252455 0.288123
C 0.5 0.252027 0.538383
C 0.5 0.293274 0.328178
C 0.5 0.293357 0.579574
C 0.5 0.377424 0.163234
C 0.5 0.376136 0.412508
C 0.5 0.376406 0.662323
C 0.5 0.378203 0.910589
C 0.5 0.418388 0.205063
C 0.5 0.417306 0.454051
C 0.5 0.417772 0.703231
C 0.5 0.417417 0.952949
C 0.5 0.33548 0.286017
C 0.5 0.33486 0.537143
C 0.5 0.337084 0.786684
C 0.5 0.378203 0.080715
C 0.5 0.376406 0.328981
C 0.5 0.376136 0.578796
C 0.5 0.377425 0.82807
C 0.5 0.459143 0.162948
C 0.5 0.458779 0.412756
C 0.5 0.458925 0.661525
C 0.5 0.459123 0.911863
C 0.5 0.5 0.204728
C 0.5 0.5 0.454068
C 0.5 0.5 0.70317
C 0.5 0.5 0.953424
C 0.5 0.417417 0.0383547
C 0.5 0.417772 0.288073
C 0.5 0.417306 0.537252
C 0.5 0.418388 0.78624
C 0.5 0.459123 0.0794405
C 0.5 0.458925 0.329778
C 0.5 0.458779 0.578547
C 0.5 0.459143 0.828356
C 0.5 0.540857 0.162948
C 0.5 0.541221 0.412756
C 0.5 0.541075 0.661525
C 0.5 0.540877 0.911863
C 0.5 0.581612 0.205064
C 0.5 0.582694 0.454051
C 0.5 0.582228 0.703231
C 0.5 0.582583 0.952949
C 0.5 0.5 0.0378798
C 0.5 0.5 0.288134
C 0.5 0.5 0.537236
C 0.5 0.5 0.786576
C 0.5 0.540877 0.0794405
C 0.5 0.541075 0.329778
C 0.5 0.541221 0.578547
C 0.5 0.540857 0.828356
C 0.5 0.622576 0.163234
C 0.5 0.623864 0.412508
C 0.5 0.623594 0.662323
C 0.5 0.621797 0.910589
C 0.5 0.662916 0.20462
C 0.5 0.66514 0.454161
C 0.5 0.66452 0.705287
C 0.5 0.582583 0.0383547
C 0.5 0.582228 0.288073
C 0.5 0.582694 0.537252
C 0.5 0.581612 0.78624
C 0.5 0.621797 0.0807151
C 0.5 0.623594 0.328981
C 0.5 0.623864 0.578796
C 0.5 0.622575 0.828069
C 0.5 0.706643 0.411731
C 0.5 0.706726 0.663127
C 0.5 0.747973 0.452922
C 0.5 0.747545 0.703181
C 0.5 0.66452 0.286017
C 0.5 0.66514 0.537143
C 0.5 0.662916 0.786684
C 0.5 0.706726 0.328178
C 0.5 0.706643 0.579573
C 0.5 0.787856 0.409986
C 0.5 0.787677 0.662738
C 0.5 0.747545 0.288123
C 0.5 0.747973 0.538383
C 0.5 0.787677 0.328567
C 0.5 0.787856 0.581319
H 0.5 0.180239 0.440252
H 0.5 0.180921 0.694961
H 0.5 0.251745 0.766999
H 0.5 0.180921 0.296344
H 0.5 0.180239 0.551053
H 0.5 0.306599 0.169974
H 0.5 0.251744 0.224305
H 0.5 0.346085 0.940308
H 0.5 0.306599 0.82133
H 0.5 0.346085 0.050996
H 0.5 0.653915 0.940308
H 0.5 0.693401 0.169974
H 0.5 0.653915 0.0509961
H 0.5 0.748255 0.766999
H 0.5 0.693401 0.82133
H 0.5 0.819761 0.440252
H 0.5 0.819079 0.694961
H 0.5 0.748255 0.224305
H 0.5 0.819079 0.296344
H 0.5 0.819761 0.551053
