data_AGNR_F_16
_audit_creation_method                 'DeviceStudio'
_symmetry_space_group_name_H-M         'PMMA'
_symmetry_Int_Tables_number            51
_symmetry_cell_setting                 Orthorhombic
loop_
_symmetry_equiv_pos_as_xyz
x,y,z
-x,-y,-z+1/2
-x,y,-z
x,-y,z+1/2
-x,-y,z+1/2
x,y,-z
x,-y,-z+1/2
-x,y,z
_cell_length_a                         10
_cell_length_b                         30.54
_cell_length_c                         4.26
_cell_angle_alpha                      90
_cell_angle_beta                       90
_cell_angle_gamma                      90
loop_
_atom_site_label
_atom_site_type_symbol
_atom_site_fract_x
_atom_site_fract_y
_atom_site_fract_z
C	C	0.5	0.197997	0.666667
C	C	0.5	0.238264	0.833333
C	C	0.5	0.278531	0.666667
C	C	0.5	0.318798	0.833333
C	C	0.5	0.359065	0.666667
C	C	0.5	0.399332	0.833333
C	C	0.5	0.439599	0.666667
C	C	0.5	0.479866	0.833333
F	F	0.5	0.156641	0.766511
