data_global
_cell_length_a 10
_cell_length_b 30
_cell_length_c 12.78
_cell_angle_alpha 90
_cell_angle_beta 90
_cell_angle_gamma 90
_symmetry_space_group_name_H-M 'P -1'
loop_
_symmetry_equiv_pos_as_xyz
  'x,y,z'
loop_
_atom_site_label
_atom_site_fract_x
_atom_site_fract_y
_atom_site_fract_z
C 0.5 0.224241 0.214334
C 0.5 0.214798 0.554671
C 0.5 0.22676 0.892191
C 0.5 0.262466 0.275194
C 0.5 0.255168 0.612605
C 0.5 0.267736 0.944279
C 0.5 0.22676 0.107809
C 0.5 0.214798 0.445329
C 0.5 0.224241 0.785666
C 0.5 0.30581 0.223854
C 0.500001 0.292842 0.552237
C 0.5 0.308574 0.888016
C 0.499999 0.348969 0.269286
C 0.5 0.35095 0.944326
C 0.5 0.267736 0.0557205
C 0.5 0.255168 0.387395
C 0.5 0.262466 0.724806
C 0.5 0.308574 0.111984
C 0.500001 0.292842 0.447763
C 0.5 0.30581 0.776146
C 0.5 0.388043 0.216383
C 0.5 0.393384 0.892401
C 0.5 0.437077 0.945095
C 0.5 0.35095 0.0556737
C 0.499999 0.348969 0.730714
C 0.5 0.393384 0.1076
C 0.5 0.388043 0.783616
C 0.5 0.485881 0.213993
C 0.5 0.481041 0.893807
C 0.5 0.525141 0.265716
C 0.5 0.52393 0.944879
C 0.5 0.437077 0.0549049
C 0.5 0.481041 0.106193
C 0.5 0.485881 0.786006
C 0.5 0.56808 0.221097
C 0.5 0.576105 0.552068
C 0.5 0.56652 0.889871
C 0.5 0.610423 0.275962
C 0.5 0.613793 0.612862
C 0.5 0.608324 0.944517
C 0.5 0.52393 0.0551212
C 0.5 0.525141 0.734285
C 0.5 0.56652 0.11013
C 0.5 0.576105 0.447931
C 0.5 0.56808 0.778902
C 0.5 0.650995 0.221214
C 0.5 0.654184 0.555797
C 0.5 0.649947 0.889861
C 0.5 0.693034 0.277081
C 0.5 0.694832 0.611615
C 0.5 0.691416 0.944591
C 0.5 0.608324 0.0554826
C 0.5 0.613793 0.387138
C 0.5 0.610423 0.724038
C 0.5 0.649947 0.110139
C 0.5 0.654184 0.444203
C 0.5 0.650995 0.778786
C 0.5 0.733723 0.222034
C 0.5 0.735818 0.556388
C 0.5 0.732814 0.890002
C 0.5 0.774311 0.278004
C 0.5 0.775518 0.614816
C 0.5 0.77281 0.946494
C 0.5 0.691416 0.0554091
C 0.5 0.694832 0.388385
C 0.5 0.693034 0.722919
C 0.5 0.732814 0.109998
C 0.5 0.735818 0.443612
C 0.5 0.733723 0.777966
C 0.5 0.77281 0.0535062
C 0.5 0.775518 0.385184
C 0.5 0.774311 0.721996
H 0.5 0.191721 0.252052
H 0.5 0.182498 0.593624
H 0.5 0.195613 0.934904
H 0.5 0.195613 0.0650959
H 0.5 0.182498 0.406376
H 0.5 0.191721 0.747948
H 0.5 0.805898 0.236426
H 0.5 0.807785 0.575969
H 0.5 0.804674 0.906198
H 0.5 0.804674 0.0938016
H 0.5 0.807785 0.424031
H 0.5 0.805898 0.763574
H 0.500003 0.32485 0.585088
H 0.499998 0.357022 0.350665
H 0.500002 0.32485 0.414911
H 0.5 0.4152 0.26981
H 0.499998 0.357022 0.649335
H 0.5 0.4152 0.73019
H 0.5 0.458717 0.267302
H 0.500001 0.516933 0.34625
H 0.5 0.458717 0.732698
H 0.499999 0.543632 0.581669
H 0.500001 0.516933 0.65375
H 0.499999 0.543632 0.418331
