data_global
_cell_length_a 10
_cell_length_b 30
_cell_length_c 12.78
_cell_angle_alpha 90
_cell_angle_beta 90
_cell_angle_gamma 90
_symmetry_space_group_name_H-M 'P -1'
loop_
_symmetry_equiv_pos_as_xyz
  'x,y,z'
loop_
_atom_site_label
_atom_site_fract_x
_atom_site_fract_y
_atom_site_fract_z
C 0.5 0.23308 0.220034
C 0.5 0.232891 0.553476
C 0.5 0.233175 0.886995
C 0.5 0.273228 0.277128
C 0.5 0.273115 0.610597
C 0.5 0.273387 0.943916
C 0.5 0.233174 0.113005
C 0.5 0.232891 0.446524
C 0.5 0.23308 0.779966
C 0.5 0.31422 0.222144
C 0.5 0.31401 0.555686
C 0.5 0.314362 0.888952
C 0.5 0.355567 0.277755
C 0.5 0.355298 0.611499
C 0.5 0.355771 0.944569
C 0.5 0.273387 0.0560839
C 0.5 0.273115 0.389403
C 0.5 0.273228 0.722872
C 0.5 0.314362 0.111048
C 0.5 0.31401 0.444314
C 0.5 0.31422 0.777856
C 0.5 0.396596 0.222158
C 0.5 0.39641 0.556706
C 0.5 0.396735 0.889384
C 0.5 0.437494 0.278051
C 0.5 0.436014 0.613203
C 0.5 0.437929 0.944648
C 0.5 0.355771 0.0554319
C 0.5 0.355298 0.3885
C 0.5 0.355568 0.722245
C 0.5 0.396735 0.110616
C 0.5 0.39641 0.443294
C 0.5 0.396596 0.777843
C 0.5 0.479654 0.221839
C 0.5 0.479361 0.889264
C 0.5 0.520562 0.27357
C 0.5 0.520571 0.944164
C 0.5 0.437929 0.0553526
C 0.5 0.436014 0.386797
C 0.5 0.437494 0.721949
C 0.5 0.479361 0.110736
C 0.5 0.479655 0.778161
C 0.5 0.561569 0.22187
C 0.5 0.561823 0.889258
C 0.5 0.603636 0.277946
C 0.5 0.605163 0.613269
C 0.5 0.603193 0.944617
C 0.5 0.520571 0.0558367
C 0.5 0.520562 0.726429
C 0.5 0.561823 0.110742
C 0.5 0.561569 0.77813
C 0.5 0.644551 0.221792
C 0.5 0.644684 0.556456
C 0.5 0.644367 0.889113
C 0.5 0.685791 0.277474
C 0.5 0.686077 0.611307
C 0.5 0.685587 0.944382
C 0.5 0.603193 0.0553826
C 0.5 0.605163 0.386731
C 0.5 0.603636 0.722054
C 0.5 0.644367 0.110887
C 0.5 0.644684 0.443544
C 0.5 0.644551 0.778208
C 0.5 0.726923 0.222305
C 0.5 0.727128 0.556075
C 0.5 0.726756 0.889385
C 0.5 0.767081 0.279492
C 0.5 0.767188 0.613404
C 0.5 0.766956 0.946572
C 0.5 0.685587 0.0556181
C 0.5 0.686077 0.388692
C 0.5 0.685791 0.722526
C 0.5 0.726756 0.110615
C 0.5 0.727128 0.443924
C 0.5 0.726923 0.777694
C 0.5 0.766956 0.0534281
C 0.5 0.767188 0.386596
C 0.5 0.767081 0.720507
H 0.5 0.201192 0.260402
H 0.5 0.201016 0.593892
H 0.5 0.201335 0.927541
H 0.5 0.201335 0.0724589
H 0.5 0.201016 0.406108
H 0.5 0.201192 0.739597
H 0.5 0.798961 0.239162
H 0.5 0.79912 0.573217
H 0.5 0.798826 0.906143
H 0.5 0.798826 0.093857
H 0.5 0.79912 0.426783
H 0.5 0.798962 0.760838
H 0.5 0.467301 0.570777
H 0.5 0.520504 0.358445
H 0.5 0.467301 0.429223
H 0.5 0.573843 0.570992
H 0.5 0.520504 0.641555
H 0.5 0.573843 0.429007
