data_global
_cell_length_a 10
_cell_length_b 36.69
_cell_length_c 4.26
_cell_angle_alpha 90
_cell_angle_beta 90
_cell_angle_gamma 90
_symmetry_space_group_name_H-M 'P -1'
loop_
_symmetry_equiv_pos_as_xyz
  'x,y,z'
loop_
_atom_site_label
_atom_site_fract_x
_atom_site_fract_y
_atom_site_fract_z
C 0.5 0.165195 0.66046
C 0.5 0.198052 0.831897
C 0.5 0.165195 0.339539
C 0.5 0.231551 0.666859
C 0.5 0.265261 0.833845
C 0.5 0.198052 0.168102
C 0.5 0.231551 0.333141
C 0.5 0.298746 0.667213
C 0.5 0.332241 0.833252
C 0.5 0.265261 0.166155
C 0.5 0.298746 0.332787
C 0.5 0.365866 0.666582
C 0.5 0.399397 0.83294
C 0.5 0.332241 0.166748
C 0.5 0.365866 0.333418
C 0.499999 0.432912 0.666692
C 0.499999 0.466496 0.833365
C 0.5 0.399397 0.167061
C 0.499999 0.432912 0.333308
C 0.499999 0.5 0.666987
C 0.5 0.533503 0.833365
C 0.499999 0.466496 0.166635
C 0.499999 0.5 0.333014
C 0.5 0.567088 0.666692
C 0.500001 0.600603 0.832939
C 0.5 0.533503 0.166635
C 0.5 0.567088 0.333308
C 0.500001 0.634134 0.666582
C 0.500001 0.66776 0.833252
C 0.500001 0.600603 0.167061
C 0.500001 0.634134 0.333418
C 0.500001 0.701254 0.667212
C 0.5 0.734739 0.833845
C 0.500001 0.66776 0.166748
C 0.500001 0.701254 0.332788
C 0.5 0.768449 0.666859
C 0.5 0.801948 0.831898
C 0.5 0.734739 0.166155
C 0.5 0.768449 0.333141
C 0.5 0.834804 0.660461
C 0.5 0.801948 0.168102
C 0.5 0.834804 0.339539
H 0.5 0.13915 0.781853
H 0.5 0.13915 0.218146
H 0.5 0.86085 0.78185
H 0.5 0.86085 0.21815
