data_global
_cell_length_a 10
_cell_length_b 40.38
_cell_length_c 4.26
_cell_angle_alpha 90
_cell_angle_beta 90
_cell_angle_gamma 90
_symmetry_space_group_name_H-M 'P -1'
loop_
_symmetry_equiv_pos_as_xyz
  'x,y,z'
loop_
_atom_site_label
_atom_site_fract_x
_atom_site_fract_y
_atom_site_fract_z
C 0.5 0.150106 0.660449
C 0.5 0.179962 0.831923
C 0.5 0.150106 0.339551
C 0.5 0.210399 0.666862
C 0.5 0.241027 0.833853
C 0.5 0.179962 0.168077
C 0.5 0.210399 0.333138
C 0.5 0.271455 0.667191
C 0.5 0.301889 0.833241
C 0.5 0.241027 0.166147
C 0.5 0.271455 0.332809
C 0.5 0.332439 0.666571
C 0.5 0.362909 0.832971
C 0.5 0.301889 0.166759
C 0.5 0.332439 0.333429
C 0.5 0.393362 0.666706
C 0.5 0.423872 0.833379
C 0.5 0.362909 0.167029
C 0.5 0.393362 0.333295
C 0.5 0.454316 0.666938
C 0.5 0.484754 0.833342
C 0.5 0.423872 0.166622
C 0.5 0.454316 0.333062
C 0.5 0.515246 0.666658
C 0.5 0.545684 0.833062
C 0.5 0.484754 0.166658
C 0.5 0.515246 0.333342
C 0.5 0.576128 0.666622
C 0.5 0.606638 0.833295
C 0.5 0.545684 0.166938
C 0.5 0.576128 0.333378
C 0.5 0.637091 0.667029
C 0.5 0.667561 0.833429
C 0.5 0.606638 0.166706
C 0.5 0.637091 0.332971
C 0.5 0.698111 0.666759
C 0.5 0.728545 0.832809
C 0.5 0.667561 0.166571
C 0.5 0.698111 0.333241
C 0.5 0.758973 0.666147
C 0.5 0.789601 0.833139
C 0.5 0.728545 0.167191
C 0.5 0.758973 0.333853
C 0.5 0.820038 0.668076
C 0.5 0.849894 0.839555
C 0.5 0.789601 0.16686
C 0.5 0.820038 0.331923
C 0.5 0.849894 0.160444
H 0.5 0.126441 0.781834
H 0.5 0.126441 0.218165
H 0.5 0.873559 0.718164
H 0.5 0.873559 0.281835
