data_global
_cell_length_a 10
_cell_length_b 21.0678
_cell_length_c 17.04
_cell_angle_alpha 90
_cell_angle_beta 90
_cell_angle_gamma 90
_symmetry_space_group_name_H-M 'P -1'
loop_
_symmetry_equiv_pos_as_xyz
  'x,y,z'
loop_
_atom_site_label
_atom_site_fract_x
_atom_site_fract_y
_atom_site_fract_z
C 0.5 0.237395 0.0432869
C 0.5 0.238602 0.292169
C 0.5 0.236274 0.540815
C 0.5 0.23555 0.792157
C 0.5 0.295015 0.0856586
C 0.5 0.295981 0.334834
C 0.5 0.29317 0.584538
C 0.5 0.292894 0.835371
C 0.5 0.238465 0.212243
C 0.5 0.237365 0.460726
C 0.5 0.235474 0.711888
C 0.5 0.236665 0.963081
C 0.5 0.353167 0.0441444
C 0.5 0.354696 0.293855
C 0.5 0.351825 0.543413
C 0.5 0.351146 0.793817
C 0.5 0.412104 0.0857276
C 0.5 0.413555 0.33546
C 0.5 0.409983 0.585337
C 0.5 0.409909 0.83558
C 0.5 0.295803 0.169509
C 0.5 0.29518 0.418509
C 0.5 0.292715 0.668573
C 0.5 0.293561 0.919425
C 0.5 0.354335 0.210481
C 0.5 0.353271 0.459944
C 0.5 0.350948 0.710171
C 0.5 0.352275 0.96053
C 0.5 0.470282 0.0437691
C 0.5 0.472986 0.294119
C 0.5 0.468504 0.543448
C 0.5 0.468081 0.793633
C 0.5 0.529044 0.0847871
C 0.5 0.531759 0.335185
C 0.5 0.525877 0.585568
C 0.5 0.526641 0.835192
C 0.5 0.413184 0.168929
C 0.5 0.412564 0.418352
C 0.5 0.409533 0.668399
C 0.5 0.41058 0.918661
C 0.5 0.47197 0.210379
C 0.5 0.470855 0.460162
C 0.5 0.467677 0.710477
C 0.5 0.469328 0.960352
C 0.5 0.586703 0.0420646
C 0.5 0.592021 0.293593
C 0.5 0.584426 0.544458
C 0.5 0.584358 0.793628
C 0.5 0.645789 0.0826725
C 0.5 0.651247 0.334188
C 0.500001 0.638757 0.590675
C 0.5 0.644343 0.833345
C 0.5 0.53056 0.168723
C 0.5 0.530681 0.41904
C 0.5 0.525868 0.668888
C 0.5 0.527214 0.918529
C 0.5 0.589516 0.20954
C 0.5 0.588446 0.461292
C 0.5 0.583628 0.711595
C 0.5 0.585973 0.959043
C 0.5 0.702824 0.0394146
C 0.5 0.712462 0.290478
C 0.5 0.702768 0.792597
C 0.5 0.760612 0.0788066
C 0.5 0.775771 0.313738
C 0.5 0.759843 0.834332
C 0.5 0.647633 0.166166
C 0.5 0.649907 0.420103
C 0.5 0.641524 0.669949
C 0.5 0.644229 0.916169
C 0.5 0.707044 0.204633
C 0.499999 0.709095 0.452762
C 0.5 0.703952 0.707585
C 0.5 0.702678 0.956133
C 0.5 0.76222 0.158196
C 0.5 0.759671 0.667574
C 0.5 0.759988 0.91434
H 0.5 0.192225 0.0740511
H 0.5 0.193306 0.322584
H 0.5 0.190571 0.570407
H 0.5 0.190142 0.822499
H 0.5 0.193139 0.181871
H 0.5 0.192309 0.429726
H 0.5 0.190051 0.681609
H 0.5 0.191057 0.933233
H 0.5 0.805464 0.0475969
H 0.5 0.812024 0.269289
H 0.5 0.805043 0.803677
H 0.5 0.809442 0.18267
H 0.5 0.805169 0.697365
H 0.5 0.80534 0.944424
H 0.500003 0.683191 0.563131
H 0.499999 0.800066 0.369328
H 0.500001 0.746983 0.41315
H 0.499998 0.728202 0.51066
H 0.5 0.763223 0.604155
