data_global
_cell_length_a 10
_cell_length_b 28.08
_cell_length_c 4.26
_cell_angle_alpha 90
_cell_angle_beta 90
_cell_angle_gamma 90
_symmetry_space_group_name_H-M 'P -1'
loop_
_symmetry_equiv_pos_as_xyz
  'x,y,z'
loop_
_atom_site_label
_atom_site_fract_x
_atom_site_fract_y
_atom_site_fract_z
C 0.5 0.215664 0.660173
C 0.5 0.258694 0.832322
C 0.5 0.215664 0.339827
C 0.500001 0.302502 0.667014
C 0.500001 0.346524 0.834004
C 0.5 0.258694 0.167678
C 0.500001 0.302502 0.332986
C 0.500002 0.390377 0.666675
C 0.500001 0.434174 0.833223
C 0.500002 0.346524 0.165996
C 0.500002 0.390377 0.333325
C 0.5 0.478047 0.666416
C 0.499999 0.521952 0.833585
C 0.500001 0.434174 0.166777
C 0.5 0.478047 0.333584
C 0.499999 0.565826 0.666777
C 0.499999 0.609623 0.833326
C 0.499999 0.521952 0.166415
C 0.499998 0.565826 0.333223
C 0.499999 0.653476 0.665995
C 0.499999 0.697499 0.832989
C 0.499999 0.609623 0.166674
C 0.499999 0.653476 0.334005
C 0.5 0.741306 0.667677
C 0.5 0.784336 0.839838
C 0.499999 0.697499 0.167011
C 0.5 0.741306 0.332323
C 0.5 0.784336 0.160162
H 0.5 0.181631 0.781619
H 0.5 0.181631 0.218382
H 0.5 0.818369 0.718381
H 0.5 0.818369 0.281619
