data_global
_cell_length_a 10
_cell_length_b 30
_cell_length_c 17.04
_cell_angle_alpha 90
_cell_angle_beta 90
_cell_angle_gamma 90
_symmetry_space_group_name_H-M 'P -1'
loop_
_symmetry_equiv_pos_as_xyz
  'x,y,z'
loop_
_atom_site_label
_atom_site_fract_x
_atom_site_fract_y
_atom_site_fract_z
C 0.5 0.294659 0.41372
C 0.5 0.294914 0.666295
C 0.5 0.336651 0.209109
C 0.5 0.334965 0.458195
C 0.5 0.335701 0.709136
C 0.5 0.294913 0.333703
C 0.5 0.294659 0.586282
C 0.5 0.376957 0.167626
C 0.5 0.376311 0.416924
C 0.5 0.376748 0.666365
C 0.5 0.377976 0.915024
C 0.5 0.418188 0.20936
C 0.5 0.417579 0.458527
C 0.5 0.417895 0.707654
C 0.5 0.41723 0.957233
C 0.5 0.335701 0.290865
C 0.5 0.334965 0.541805
C 0.5 0.336651 0.79089
C 0.5 0.377975 0.0849769
C 0.5 0.376748 0.333635
C 0.5 0.376311 0.583076
C 0.5 0.376957 0.832373
C 0.5 0.459034 0.167271
C 0.5 0.45883 0.417025
C 0.5 0.458987 0.665994
C 0.5 0.459064 0.916234
C 0.5 0.5 0.208982
C 0.5 0.5 0.458472
C 0.5 0.5 0.707659
C 0.5 0.5 0.957694
C 0.5 0.417231 0.0427668
C 0.5 0.417895 0.292347
C 0.5 0.417579 0.541473
C 0.5 0.418189 0.79064
C 0.5 0.459064 0.0837667
C 0.5 0.458987 0.334006
C 0.5 0.45883 0.582975
C 0.5 0.459034 0.832729
C 0.5 0.540966 0.16727
C 0.5 0.541169 0.417025
C 0.5 0.541013 0.665995
C 0.5 0.540936 0.916234
C 0.5 0.581812 0.20936
C 0.5 0.582421 0.458527
C 0.5 0.582104 0.707653
C 0.5 0.582769 0.957233
C 0.5 0.5 0.0423062
C 0.5 0.5 0.29234
C 0.5 0.5 0.541528
C 0.5 0.5 0.791018
C 0.5 0.540936 0.0837666
C 0.5 0.541013 0.334006
C 0.5 0.54117 0.582975
C 0.5 0.540966 0.832729
C 0.5 0.623043 0.167626
C 0.5 0.623689 0.416923
C 0.5 0.623253 0.666366
C 0.5 0.622024 0.915023
C 0.5 0.663349 0.20911
C 0.5 0.665035 0.458195
C 0.5 0.664299 0.709135
C 0.5 0.582769 0.042767
C 0.5 0.582104 0.292346
C 0.5 0.582421 0.541473
C 0.5 0.581812 0.79064
C 0.5 0.622024 0.0849766
C 0.5 0.623253 0.333636
C 0.5 0.623689 0.583075
C 0.5 0.623042 0.832374
C 0.5 0.705341 0.413717
C 0.5 0.705087 0.6663
C 0.5 0.664299 0.290864
C 0.5 0.665034 0.541806
C 0.5 0.663349 0.790891
C 0.5 0.705086 0.333706
C 0.5 0.705342 0.586277
H 0.5 0.262719 0.443946
H 0.5 0.263584 0.698806
H 0.5 0.263585 0.301194
H 0.5 0.262718 0.556054
H 0.5 0.737282 0.443946
H 0.5 0.736415 0.698806
H 0.5 0.736416 0.301194
H 0.5 0.737281 0.556054
H 0.5 0.305306 0.176546
H 0.5 0.345889 0.94488
H 0.5 0.305306 0.823454
H 0.5 0.345889 0.0551198
H 0.5 0.654111 0.94488
H 0.5 0.694694 0.176546
H 0.5 0.654111 0.0551195
H 0.5 0.694694 0.823454
