data_global
_cell_length_a 10
_cell_length_b 21.0678
_cell_length_c 17.04
_cell_angle_alpha 90
_cell_angle_beta 90
_cell_angle_gamma 90
_symmetry_space_group_name_H-M 'P -1'
loop_
_symmetry_equiv_pos_as_xyz
  'x,y,z'
loop_
_atom_site_label
_atom_site_fract_x
_atom_site_fract_y
_atom_site_fract_z
C 0.5 0.287457 0.164538
C 0.5 0.285642 0.41449
C 0.5 0.28616 0.665749
C 0.5 0.287827 0.915576
C 0.5 0.344524 0.207603
C 0.5 0.342682 0.457949
C 0.5 0.343662 0.708482
C 0.5 0.345249 0.958095
C 0.5 0.287827 0.0844241
C 0.5 0.28616 0.334252
C 0.5 0.285642 0.58551
C 0.5 0.287457 0.835462
C 0.5 0.403283 0.166498
C 0.5 0.401114 0.41657
C 0.5 0.401767 0.666978
C 0.5 0.403707 0.916891
C 0.5 0.461917 0.208171
C 0.5 0.459543 0.458438
C 0.5 0.460712 0.708709
C 0.5 0.462692 0.958337
C 0.5 0.345249 0.0419054
C 0.5 0.343662 0.291518
C 0.5 0.342682 0.542051
C 0.5 0.344524 0.792397
C 0.5 0.403707 0.0831089
C 0.5 0.401767 0.333022
C 0.5 0.401114 0.58343
C 0.5 0.403283 0.833502
C 0.5 0.520888 0.166624
C 0.5 0.517801 0.416573
C 0.5 0.518662 0.666897
C 0.5 0.521135 0.916738
C 0.5 0.579444 0.208405
C 0.5 0.575639 0.458443
C 0.5 0.577353 0.70848
C 0.5 0.580313 0.957875
C 0.5 0.462692 0.0416626
C 0.5 0.460712 0.291291
C 0.5 0.459543 0.541562
C 0.5 0.461917 0.791829
C 0.5 0.521135 0.0832621
C 0.5 0.518662 0.333103
C 0.5 0.517801 0.583427
C 0.5 0.520888 0.833376
C 0.5 0.639433 0.167797
C 0.5 0.633906 0.416575
C 0.5 0.635127 0.666458
C 0.5 0.638418 0.916193
C 0.5 0.697894 0.210385
C 0.5 0.691164 0.45891
C 0.5 0.694297 0.70669
C 0.5 0.69732 0.958019
C 0.5 0.580313 0.042125
C 0.5 0.577353 0.291519
C 0.5 0.575638 0.541557
C 0.5 0.579444 0.791595
C 0.5 0.638418 0.0838069
C 0.5 0.635126 0.333544
C 0.5 0.633907 0.583422
C 0.5 0.639433 0.832204
C 0.5 0.759511 0.169208
C 0.5 0.748923 0.418629
C 0.5 0.749619 0.660311
C 0.5 0.755479 0.9167
C 0.5 0.820676 0.197135
C 0.5 0.811263 0.960264
C 0.5 0.697321 0.0419812
C 0.5 0.694297 0.293308
C 0.5 0.691163 0.541093
C 0.5 0.697894 0.789614
C 0.5 0.755478 0.0833003
C 0.5 0.749617 0.339701
C 0.5 0.748924 0.581359
C 0.5 0.759511 0.830792
C 0.5 0.811263 0.0397362
C 0.5 0.820676 0.802865
H 0.5 0.839659 0.255435
H 0.499999 0.83966 0.744565
H 0.5 0.242009 0.19472
H 0.5 0.240093 0.444487
H 0.5 0.240905 0.696323
H 0.5 0.242578 0.946113
H 0.5 0.242578 0.0538869
H 0.5 0.240905 0.303677
H 0.5 0.240093 0.555513
H 0.5 0.242009 0.80528
H 0.5 0.794132 0.448968
H 0.500001 0.795254 0.686203
H 0.5 0.859665 0.156205
H 0.5 0.857823 0.933738
H 0.5 0.795256 0.313795
H 0.5 0.794131 0.551033
H 0.5 0.857823 0.0662617
H 0.5 0.859665 0.843795
