data_global
_cell_length_a 10
_cell_length_b 30
_cell_length_c 8.52
_cell_angle_alpha 90
_cell_angle_beta 90
_cell_angle_gamma 90
_symmetry_space_group_name_H-M 'P -1'
loop_
_symmetry_equiv_pos_as_xyz
  'x,y,z'
loop_
_atom_site_label
_atom_site_fract_x
_atom_site_fract_y
_atom_site_fract_z
C 0.5 0.232034 0.329978
C 0.5 0.232176 0.83036
C 0.5 0.272173 0.416176
C 0.5 0.272409 0.916384
C 0.5 0.232176 0.16964
C 0.5 0.232034 0.670022
C 0.5 0.313275 0.3333
C 0.5 0.313599 0.833581
C 0.5 0.354611 0.415578
C 0.5 0.354885 0.916831
C 0.5 0.272409 0.083616
C 0.5 0.272173 0.583824
C 0.5 0.313599 0.166419
C 0.5 0.313275 0.6667
C 0.5 0.394335 0.330167
C 0.5 0.395955 0.832447
C 0.5 0.438312 0.916603
C 0.5 0.354885 0.0831691
C 0.5 0.354611 0.584422
C 0.5 0.395955 0.167553
C 0.5 0.394335 0.669833
C 0.5 0.479433 0.839221
C 0.5 0.520515 0.916642
C 0.5 0.438312 0.0833968
C 0.5 0.479433 0.160779
C 0.5 0.564479 0.330356
C 0.5 0.562883 0.832512
C 0.5 0.604171 0.41499
C 0.5 0.603874 0.916291
C 0.5 0.520515 0.0833576
C 0.5 0.562883 0.167488
C 0.5 0.564479 0.669644
C 0.5 0.645255 0.332896
C 0.5 0.644948 0.83328
C 0.5 0.686583 0.416523
C 0.5 0.686363 0.916689
C 0.5 0.603874 0.0837093
C 0.5 0.604171 0.58501
C 0.5 0.644948 0.16672
C 0.5 0.645255 0.667104
C 0.5 0.727481 0.334229
C 0.5 0.727362 0.834245
C 0.5 0.767697 0.419757
C 0.5 0.767499 0.919712
C 0.5 0.686363 0.0833111
C 0.5 0.686583 0.583477
C 0.5 0.727362 0.165755
C 0.5 0.727481 0.665771
C 0.5 0.767499 0.0802884
C 0.5 0.767697 0.580243
H 0.5 0.200097 0.390189
H 0.5 0.20031 0.891023
H 0.5 0.20031 0.108977
H 0.5 0.200097 0.609812
H 0.5 0.799575 0.359152
H 0.5 0.799361 0.859062
H 0.5 0.799361 0.140939
H 0.5 0.799576 0.640849
H 0.5 0.425596 0.394049
H 0.5 0.425596 0.605951
H 0.5 0.479491 0.711897
H 0.5 0.479491 0.288103
H 0.5 0.53326 0.394418
H 0.5 0.53326 0.605583
