data_3Z_1A_W9
_audit_creation_method                 'DeviceStudio'
_symmetry_space_group_name_H-M         'PM'
_symmetry_Int_Tables_number            6
_symmetry_cell_setting                 Orthorhombic
loop_
_symmetry_equiv_pos_as_xyz
x,y,z
-x,y,z
_cell_length_a                         10
_cell_length_b                         30
_cell_length_c                         11.27
_cell_angle_alpha                      90
_cell_angle_beta                       90
_cell_angle_gamma                      90
loop_
_atom_site_label
_atom_site_type_symbol
_atom_site_fract_x
_atom_site_fract_y
_atom_site_fract_z
C	C	0.5	0.337329	0.77385
C	C	0.5	0.337321	0.44049
C	C	0.5	0.38381	0.797654
C	C	0.5	0.321833	0.654795
C	C	0.5	0.368321	0.01196
C	C	0.5	0.368306	0.345239
C	C	0.5	0.414794	0.702403
C	C	0.5	0.414787	0.369043
C	C	0.5	0.461275	0.726207
C	C	0.5	0.352817	0.559544
C	C	0.5	0.399306	0.916709
C	C	0.5	0.35281	0.226184
C	C	0.5	0.399298	0.583349
C	C	0.5	0.445787	0.940513
C	C	0.5	0.445772	0.273793
C	C	0.5	0.49226	0.630957
C	C	0.5	0.492253	0.297597
C	C	0.5	0.538741	0.654761
C	C	0.5	0.383795	0.130934
C	C	0.5	0.430283	0.488098
C	C	0.5	0.476771	0.845262
C	C	0.5	0.430276	0.154738
C	C	0.5	0.476764	0.511902
C	C	0.5	0.523252	0.869066
C	C	0.5	0.523238	0.202346
C	C	0.5	0.569726	0.55951
C	C	0.5	0.616214	0.916674
C	C	0.5	0.569719	0.22615
C	C	0.5	0.616207	0.583314
C	C	0.5	0.662695	0.940478
C	C	0.5	0.461261	0.0594874
C	C	0.5	0.507749	0.416651
C	C	0.5	0.554237	0.773816
C	C	0.5	0.507741	0.0832915
C	C	0.5	0.55423	0.440456
C	C	0.5	0.600718	0.79762
C	C	0.5	0.600703	0.1309
C	C	0.5	0.647192	0.488064
C	C	0.5	0.647184	0.154704
C	C	0.5	0.538726	0.988041
C	C	0.5	0.585215	0.345205
C	C	0.5	0.631703	0.702369
C	C	0.5	0.585207	0.011845
C	C	0.5	0.631696	0.369009
C	C	0.5	0.678169	0.0594532
C	C	0.5	0.66268	0.273758
H	H	0.5	0.313545	0.846965
H	H	0.5	0.301642	0.422218
H	H	0.5	0.286154	0.636523
H	H	0.5	0.332643	0.993664
H	H	0.5	0.317131	0.207912
H	H	0.5	0.686479	0.867364
H	H	0.5	0.682871	0.506336
H	H	0.5	0.667382	0.720641
H	H	0.5	0.713846	0.0777478
H	H	0.5	0.698359	0.292031
