data_global
_cell_length_a 10
_cell_length_b 37.92
_cell_length_c 4.26
_cell_angle_alpha 90
_cell_angle_beta 90
_cell_angle_gamma 90
_symmetry_space_group_name_H-M 'P -1'
loop_
_symmetry_equiv_pos_as_xyz
  'x,y,z'
loop_
_atom_site_label
_atom_site_fract_x
_atom_site_fract_y
_atom_site_fract_z
C 0.5 0.159817 0.660359
C 0.5 0.191628 0.832031
C 0.5 0.159817 0.339641
C 0.5 0.224037 0.666899
C 0.5 0.256643 0.833938
C 0.5 0.191628 0.167969
C 0.5 0.224037 0.333102
C 0.5 0.289065 0.667086
C 0.499999 0.321465 0.833186
C 0.5 0.256643 0.166063
C 0.5 0.289065 0.332914
C 0.499999 0.353985 0.666463
C 0.499999 0.386457 0.833095
C 0.499999 0.321465 0.166814
C 0.499999 0.353985 0.333538
C 0.5 0.418874 0.666787
C 0.5 0.451348 0.833514
C 0.499999 0.386457 0.166905
C 0.5 0.418874 0.333213
C 0.500001 0.483801 0.666795
C 0.500001 0.5162 0.833205
C 0.5 0.451348 0.166487
C 0.500001 0.483801 0.333205
C 0.500001 0.548653 0.666486
C 0.500001 0.581126 0.833213
C 0.500001 0.5162 0.166795
C 0.500001 0.548653 0.333514
C 0.500001 0.613543 0.666904
C 0.500001 0.646015 0.833537
C 0.500001 0.581126 0.166787
C 0.500001 0.613543 0.333095
C 0.500001 0.678535 0.666814
C 0.5 0.710934 0.832913
C 0.500001 0.646015 0.166462
C 0.500001 0.678535 0.333186
C 0.5 0.743357 0.666063
C 0.5 0.775963 0.833101
C 0.5 0.710934 0.167086
C 0.5 0.743357 0.333937
C 0.5 0.808371 0.667969
C 0.5 0.840183 0.839634
C 0.5 0.775963 0.166899
C 0.5 0.808371 0.332031
C 0.5 0.840183 0.160365
H 0.5 0.134617 0.781754
H 0.499999 0.134617 0.218246
H 0.5 0.865383 0.718246
H 0.5 0.865383 0.281754
