data_3Z_2A_W9
_audit_creation_method                 'DeviceStudio'
_symmetry_space_group_name_H-M         'P2/M'
_symmetry_Int_Tables_number            10
_symmetry_cell_setting                 Orthorhombic
loop_
_symmetry_equiv_pos_as_xyz
x,y,z
-x,-y,-z+9033591/16777216
x,-y,-z+9033591/16777216
-x,y,z
_cell_length_a                         10
_cell_length_b                         30
_cell_length_c                         15.36
_cell_angle_alpha                      90
_cell_angle_beta                       90
_cell_angle_gamma                      90
loop_
_atom_site_label
_atom_site_type_symbol
_atom_site_fract_x
_atom_site_fract_y
_atom_site_fract_z
C	C	0.5	0.323784	0.544881
C	C	0.5	0.357897	0.814103
C	C	0.5	0.335149	0.301296
C	C	0.5	0.369261	0.570518
C	C	0.5	0.403373	0.83974
C	C	0.5	0.312413	0.45514
C	C	0.5	0.346526	0.724362
C	C	0.5	0.380638	0.993585
C	C	0.5	0.369255	0.237192
C	C	0.5	0.403367	0.506415
C	C	0.5	0.43748	0.775637
C	C	0.5	0.414732	0.26283
C	C	0.5	0.448844	0.532052
C	C	0.5	0.482956	0.801274
C	C	0.5	0.346519	0.391037
C	C	0.5	0.380632	0.660259
C	C	0.5	0.414744	0.929481
C	C	0.5	0.357884	0.147452
C	C	0.5	0.391996	0.416674
C	C	0.5	0.426109	0.685896
C	C	0.5	0.460221	0.955118
C	C	0.5	0.448838	0.198726
C	C	0.5	0.48295	0.467948
C	C	0.5	0.494315	0.224363
C	C	0.5	0.528427	0.493585
C	C	0.5	0.39199	0.0833482
C	C	0.5	0.426102	0.35257
C	C	0.5	0.460215	0.621792
C	C	0.5	0.494327	0.891015
C	C	0.5	0.437467	0.108985
C	C	0.5	0.471579	0.378208
H	H	0.5	0.297604	0.594087
H	H	0.5	0.331717	0.863309
H	H	0.5	0.30024	0.281617
H	H	0.5	0.277505	0.435461
H	H	0.5	0.311617	0.704683
H	H	0.5	0.34573	0.973905
H	H	0.5	0.322976	0.127773
