data_3Z_1A_W7
_audit_creation_method                 'DeviceStudio'
_symmetry_space_group_name_H-M         'PM'
_symmetry_Int_Tables_number            6
_symmetry_cell_setting                 Orthorhombic
loop_
_symmetry_equiv_pos_as_xyz
x,y,z
-x,y,z
_cell_length_a                         10
_cell_length_b                         30
_cell_length_c                         11.27
_cell_angle_alpha                      90
_cell_angle_beta                       90
_cell_angle_gamma                      90
loop_
_atom_site_label
_atom_site_type_symbol
_atom_site_fract_x
_atom_site_fract_y
_atom_site_fract_z
C	C	0.5	0.376061	0.738126
C	C	0.5	0.376053	0.404767
C	C	0.5	0.422542	0.761931
C	C	0.5	0.360565	0.619072
C	C	0.5	0.407053	0.976236
C	C	0.5	0.407038	0.309516
C	C	0.5	0.453526	0.66668
C	C	0.5	0.453519	0.33332
C	C	0.5	0.500007	0.690484
C	C	0.5	0.391549	0.523821
C	C	0.5	0.438038	0.880985
C	C	0.5	0.391542	0.190461
C	C	0.5	0.43803	0.547625
C	C	0.5	0.484519	0.904789
C	C	0.5	0.484504	0.238069
C	C	0.5	0.530992	0.595233
C	C	0.5	0.577481	0.952398
C	C	0.5	0.530985	0.261874
C	C	0.5	0.577473	0.619038
C	C	0.5	0.623962	0.976202
C	C	0.5	0.422527	0.0952106
C	C	0.5	0.469015	0.452375
C	C	0.5	0.515504	0.809539
C	C	0.5	0.469008	0.119015
C	C	0.5	0.515496	0.476179
C	C	0.5	0.561984	0.833343
C	C	0.5	0.56197	0.166623
C	C	0.5	0.608458	0.523787
C	C	0.5	0.608451	0.190427
C	C	0.5	0.499993	0.0237641
C	C	0.5	0.546481	0.380928
C	C	0.5	0.592969	0.738092
C	C	0.5	0.546474	0.0475682
C	C	0.5	0.592962	0.404732
C	C	0.5	0.639435	0.0951764
C	C	0.5	0.623947	0.309482
H	H	0.5	0.352277	0.811241
H	H	0.5	0.340374	0.386494
H	H	0.5	0.324886	0.6008
H	H	0.5	0.371374	0.957964
H	H	0.5	0.355863	0.172189
H	H	0.5	0.647746	0.903087
H	H	0.5	0.644137	0.542059
H	H	0.5	0.628648	0.756364
H	H	0.5	0.675114	0.113449
H	H	0.5	0.659626	0.327754
