data_2Z_3A_W9
_audit_creation_method                 'DeviceStudio'
_symmetry_space_group_name_H-M         'PM'
_symmetry_Int_Tables_number            6
_symmetry_cell_setting                 Orthorhombic
loop_
_symmetry_equiv_pos_as_xyz
x,y,z
-x,y,z
_cell_length_a                         10
_cell_length_b                         30
_cell_length_c                         17.22
_cell_angle_alpha                      90
_cell_angle_beta                       90
_cell_angle_gamma                      90
loop_
_atom_site_label
_atom_site_type_symbol
_atom_site_fract_x
_atom_site_fract_y
_atom_site_fract_z
C	C	0.5	0.319117	0.219415
C	C	0.5	0.339395	0.464266
C	C	0.5	0.359673	0.709118
C	C	0.5	0.37995	0.953969
C	C	0.5	0.356309	0.168408
C	C	0.5	0.376587	0.41326
C	C	0.5	0.396865	0.658111
C	C	0.5	0.417143	0.902962
C	C	0.5	0.40026	0.199019
C	C	0.5	0.420538	0.44387
C	C	0.5	0.440816	0.688721
C	C	0.5	0.461094	0.933573
C	C	0.5	0.325876	0.301032
C	C	0.5	0.346154	0.545883
C	C	0.5	0.366432	0.790735
C	C	0.5	0.34955	0.0867911
C	C	0.5	0.369828	0.331642
C	C	0.5	0.390105	0.576494
C	C	0.5	0.410383	0.821345
C	C	0.5	0.437453	0.148012
C	C	0.5	0.45773	0.392863
C	C	0.5	0.478008	0.637715
C	C	0.5	0.498286	0.882566
C	C	0.5	0.481404	0.178622
C	C	0.5	0.501682	0.423474
C	C	0.5	0.52196	0.668325
C	C	0.5	0.542237	0.913177
C	C	0.5	0.386742	0.0357844
C	C	0.5	0.40702	0.280636
C	C	0.5	0.427298	0.525487
C	C	0.5	0.447575	0.770339
C	C	0.5	0.430693	0.0663949
C	C	0.5	0.450971	0.311246
C	C	0.5	0.471249	0.556098
C	C	0.5	0.491527	0.800949
C	C	0.5	0.518596	0.127616
C	C	0.5	0.538874	0.372467
C	C	0.5	0.559152	0.617319
C	C	0.5	0.57943	0.86217
C	C	0.5	0.562547	0.158226
C	C	0.5	0.582825	0.403078
C	C	0.5	0.603103	0.647929
C	C	0.5	0.623381	0.89278
C	C	0.5	0.467885	0.0153882
C	C	0.5	0.488163	0.26024
C	C	0.5	0.508441	0.505091
C	C	0.5	0.528719	0.749942
C	C	0.5	0.511837	0.0459987
C	C	0.5	0.532115	0.29085
C	C	0.5	0.552392	0.535701
C	C	0.5	0.57267	0.780553
C	C	0.5	0.59974	0.10722
C	C	0.5	0.620017	0.352071
C	C	0.5	0.640295	0.596922
C	C	0.5	0.660573	0.841774
C	C	0.5	0.643691	0.13783
C	C	0.5	0.549029	0.994992
C	C	0.5	0.569307	0.239843
C	C	0.5	0.589585	0.484695
C	C	0.5	0.609862	0.729546
C	C	0.5	0.63014	0.974398
C	C	0.5	0.59298	0.0256025
C	C	0.5	0.613258	0.270454
C	C	0.5	0.633536	0.515305
C	C	0.5	0.653814	0.760157
C	C	0.5	0.674092	0.00501001
C	C	0.5	0.680883	0.0868234
C	C	0.5	0.65045	0.219447
H	H	0.5	0.28538	0.195918
H	H	0.5	0.305657	0.440769
H	H	0.5	0.325935	0.685621
H	H	0.5	0.346209	0.930491
H	H	0.5	0.297327	0.340185
H	H	0.5	0.317605	0.585036
H	H	0.5	0.337883	0.829888
H	H	0.5	0.315812	0.0632943
H	H	0.5	0.653755	0.375568
H	H	0.5	0.674033	0.620419
H	H	0.5	0.69431	0.86527
H	H	0.5	0.662085	0.476152
H	H	0.5	0.682363	0.721004
H	H	0.5	0.702641	0.965855
H	H	0.5	0.71462	0.11032
H	H	0.5	0.684188	0.242944
