data_global
_cell_length_a 10
_cell_length_b 21.0678
_cell_length_c 17.04
_cell_angle_alpha 90
_cell_angle_beta 90
_cell_angle_gamma 90
_symmetry_space_group_name_H-M 'P -1'
loop_
_symmetry_equiv_pos_as_xyz
  'x,y,z'
loop_
_atom_site_label
_atom_site_fract_x
_atom_site_fract_y
_atom_site_fract_z
C 0.5 0.236866 0.163517
C 0.5 0.236434 0.414271
C 0.5 0.237909 0.664811
C 0.5 0.237976 0.913828
C 0.5 0.294011 0.206973
C 0.5 0.293785 0.457455
C 0.5 0.295566 0.707354
C 0.5 0.295277 0.956832
C 0.5 0.237275 0.0834435
C 0.5 0.236411 0.33413
C 0.5 0.237112 0.584792
C 0.5 0.238232 0.833859
C 0.5 0.352535 0.165672
C 0.5 0.35205 0.415912
C 0.5 0.353902 0.665995
C 0.5 0.353802 0.915644
C 0.5 0.411007 0.207475
C 0.5 0.410725 0.457633
C 0.5 0.413109 0.707563
C 0.5 0.412418 0.95736
C 0.5 0.294813 0.0406203
C 0.5 0.293727 0.290879
C 0.5 0.294183 0.541323
C 0.5 0.295691 0.791032
C 0.5 0.353008 0.082057
C 0.5 0.35206 0.332303
C 0.5 0.352806 0.582513
C 0.5 0.354206 0.832155
C 0.5 0.469708 0.165612
C 0.5 0.468953 0.415457
C 0.5 0.471824 0.665745
C 0.5 0.471248 0.915648
C 0.5 0.527802 0.207109
C 0.5 0.52735 0.456924
C 0.5 0.53163 0.70689
C 0.5 0.529395 0.957518
C 0.5 0.411832 0.0403251
C 0.5 0.410719 0.290437
C 0.5 0.411155 0.540661
C 0.5 0.41306 0.790496
C 0.5 0.47017 0.0822892
C 0.5 0.469116 0.332287
C 0.5 0.469801 0.582502
C 0.5 0.471958 0.83212
C 0.5 0.586542 0.166262
C 0.5 0.585017 0.413718
C 0.5 0.59042 0.665258
C 0.5 0.588083 0.916303
C 0.5 0.645285 0.208246
C 0.5 0.643052 0.455214
C 0.5 0.651106 0.708542
C 0.5 0.646256 0.959456
C 0.5 0.528741 0.0412146
C 0.5 0.527582 0.290426
C 0.5 0.527495 0.540481
C 0.5 0.530772 0.790869
C 0.5 0.586789 0.0835397
C 0.5 0.585557 0.331576
C 0.5 0.586343 0.581555
C 0.5 0.589177 0.83317
C 0.5 0.703729 0.167529
C 0.5 0.705437 0.416982
C 0.5 0.713434 0.67712
C 0.5 0.704938 0.920151
C 0.5 0.761069 0.209405
C 0.5 0.761229 0.456887
C 0.5 0.768944 0.720116
C 0.5 0.761913 0.963122
C 0.5 0.645709 0.0425333
C 0.5 0.645501 0.291236
C 0.5 0.640433 0.53463
C 0.5 0.648813 0.792441
C 0.5 0.703757 0.0839698
C 0.5 0.703999 0.331767
C 0.5 0.706618 0.836378
C 0.5 0.76143 0.0428871
C 0.5 0.760945 0.289497
C 0.5 0.766112 0.800088
H 0.5 0.191376 0.193603
H 0.5 0.191054 0.444612
H 0.5 0.192828 0.695752
H 0.5 0.192596 0.944136
H 0.5 0.192013 0.0528892
H 0.5 0.19102 0.303806
H 0.5 0.191502 0.554956
H 0.5 0.192929 0.803443
H 0.5 0.806395 0.179098
H 0.5 0.806798 0.42724
H 0.5 0.814223 0.689125
H 0.5 0.807613 0.933973
H 0.5 0.806518 0.0736861
H 0.5 0.806177 0.320078
H 0.5 0.809781 0.833578
H 0.5 0.725472 0.616536
H 0.5 0.764748 0.52038
H 0.5 0.685377 0.56112
