data_global
_cell_length_a 10
_cell_length_b 30
_cell_length_c 11.27
_cell_angle_alpha 90
_cell_angle_beta 90
_cell_angle_gamma 90
_symmetry_space_group_name_H-M 'P -1'
loop_
_symmetry_equiv_pos_as_xyz
  'x,y,z'
loop_
_atom_site_label
_atom_site_fract_x
_atom_site_fract_y
_atom_site_fract_z
C 0.5 0.336319 0.767918
C 0.5 0.33739 0.439325
C 0.5 0.382587 0.795878
C 0.5 0.32145 0.653359
C 0.5 0.368845 0.0124345
C 0.5 0.367586 0.343862
C 0.499999 0.413933 0.701922
C 0.5 0.414718 0.368437
C 0.5 0.460943 0.725949
C 0.5 0.351952 0.556653
C 0.5 0.398201 0.917033
C 0.5 0.353193 0.225516
C 0.499999 0.398851 0.582226
C 0.5 0.445492 0.940039
C 0.5 0.445714 0.273543
C 0.5 0.491924 0.631332
C 0.5 0.492423 0.297423
C 0.5 0.538829 0.655201
C 0.5 0.383465 0.131006
C 0.5 0.429933 0.487481
C 0.5 0.476532 0.845223
C 0.5 0.430531 0.154594
C 0.5 0.476693 0.511717
C 0.5 0.523477 0.869046
C 0.5 0.523315 0.202554
C 0.5 0.569477 0.55968
C 0.5 0.617422 0.918387
C 0.5 0.570075 0.226793
C 0.5 0.616543 0.583263
C 0.5 0.663689 0.946371
C 0.5 0.461179 0.0590659
C 0.5 0.507586 0.416854
C 0.5 0.554517 0.774229
C 0.5 0.508084 0.0829412
C 0.5 0.554294 0.440728
C 0.5 0.601807 0.797236
C 0.5 0.601157 0.132041
C 0.5 0.646814 0.48876
C 0.5 0.648057 0.157624
C 0.5 0.539065 0.988317
C 0.5 0.585289 0.345835
C 0.5 0.631164 0.701839
C 0.5 0.586075 0.012355
C 0.5 0.632422 0.370408
C 0.5 0.678556 0.0608968
C 0.5 0.662617 0.274949
H 0.5 0.311823 0.839087
H 0.5 0.30166 0.420867
H 0.5 0.285794 0.634412
H 0.5 0.332979 0.997742
H 0.5 0.317493 0.206445
H 0.500001 0.688184 0.875178
H 0.5 0.682513 0.507828
H 0.5 0.667028 0.716528
H 0.5 0.714217 0.0798577
H 0.5 0.698349 0.293404
