data_AGNR_OH_11
_audit_creation_method                 'DeviceStudio'
_symmetry_space_group_name_H-M         'P1'
_symmetry_Int_Tables_number            1
_symmetry_cell_setting                 Orthorhombic
loop_
_symmetry_equiv_pos_as_xyz
x,y,z
_cell_length_a                         10
_cell_length_b                         24.39
_cell_length_c                         4.26
_cell_angle_alpha                      90
_cell_angle_beta                       90
_cell_angle_gamma                      90
loop_
_atom_site_label
_atom_site_type_symbol
_atom_site_fract_x
_atom_site_fract_y
_atom_site_fract_z
C	C	0.5	0.247897	0.666667
C	C	0.5	0.298318	0.833333
C	C	0.5	0.247897	0.333333
C	C	0.5	0.348738	0.666667
C	C	0.5	0.399159	0.833333
C	C	0.5	0.298318	0.166667
C	C	0.5	0.348738	0.333333
C	C	0.5	0.449579	0.666667
C	C	0.5	0.5	0.833333
C	C	0.5	0.399159	0.166667
C	C	0.5	0.449579	0.333333
C	C	0.5	0.550421	0.666667
C	C	0.5	0.600841	0.833333
C	C	0.5	0.5	0.166667
C	C	0.5	0.550421	0.333333
C	C	0.5	0.651262	0.666667
C	C	0.5	0.701682	0.833333
C	C	0.5	0.600841	0.166667
C	C	0.5	0.651262	0.333333
C	C	0.5	0.752103	0.666667
C	C	0.5	0.701682	0.166667
C	C	0.5	0.752103	0.333333
O	O	0.44	0.194596	0.751174
O	O	0.55	0.194596	0.237089
O	O	0.55	0.805403	0.751174
O	O	0.44	0.805403	0.237089
H	H	0.527	0.169996	0.41784
H	H	0.4793	0.186396	0.962441
H	H	0.4793	0.813604	0.0375587
H	H	0.527	0.830004	0.581455
