data_global
_cell_length_a 10
_cell_length_b 41.61
_cell_length_c 4.26
_cell_angle_alpha 90
_cell_angle_beta 90
_cell_angle_gamma 90
_symmetry_space_group_name_H-M 'P -1'
loop_
_symmetry_equiv_pos_as_xyz
  'x,y,z'
loop_
_atom_site_label
_atom_site_fract_x
_atom_site_fract_y
_atom_site_fract_z
C 0.5 0.145653 0.660356
C 0.5 0.174643 0.832034
C 0.5 0.145653 0.339644
C 0.5 0.204178 0.666896
C 0.5 0.233892 0.833935
C 0.5 0.174643 0.167966
C 0.5 0.204178 0.333103
C 0.5 0.263439 0.667084
C 0.5 0.292967 0.833191
C 0.5 0.233892 0.166065
C 0.5 0.263439 0.332915
C 0.5 0.322603 0.666469
C 0.5 0.352193 0.833097
C 0.5 0.292967 0.166809
C 0.5 0.322603 0.333531
C 0.5 0.381737 0.666771
C 0.5 0.411332 0.833501
C 0.5 0.352193 0.166903
C 0.5 0.381737 0.333229
C 0.5 0.440902 0.666794
C 0.5 0.470428 0.833237
C 0.5 0.411332 0.166499
C 0.5 0.440902 0.333206
C 0.5 0.5 0.666512
C 0.5 0.529571 0.833237
C 0.5 0.470428 0.166763
C 0.5 0.5 0.333488
C 0.5 0.559098 0.666794
C 0.5 0.588668 0.833501
C 0.5 0.529571 0.166763
C 0.5 0.559098 0.333206
C 0.5 0.618262 0.666772
C 0.5 0.647807 0.833097
C 0.5 0.588668 0.1665
C 0.5 0.618262 0.333229
C 0.5 0.677397 0.66647
C 0.5 0.707033 0.83319
C 0.5 0.647807 0.166903
C 0.5 0.677397 0.333531
C 0.5 0.736561 0.667086
C 0.5 0.766108 0.833934
C 0.5 0.707033 0.16681
C 0.5 0.736561 0.332914
C 0.5 0.795822 0.666901
C 0.5 0.825358 0.832032
C 0.5 0.766108 0.166067
C 0.5 0.795822 0.333099
C 0.5 0.854349 0.66037
C 0.5 0.825358 0.167968
C 0.5 0.854349 0.339631
H 0.5 0.122688 0.78176
H 0.5 0.122688 0.218239
H 0.5 0.877312 0.781761
H 0.5 0.877312 0.21824
