data_V9_-5%
_audit_creation_method                 'DeviceStudio'
_symmetry_space_group_name_H-M         'PMMA'
_symmetry_Int_Tables_number            51
_symmetry_cell_setting                 Orthorhombic
loop_
_symmetry_equiv_pos_as_xyz
x,y,z
-x,-y,-z+1/2
-x,y,-z
x,-y,z+1/2
-x,-y,z+1/2
x,y,-z
x,-y,-z+1/2
-x,y,z
_cell_length_a                         10
_cell_length_b                         29.31
_cell_length_c                         16.188
_cell_angle_alpha                      90
_cell_angle_beta                       90
_cell_angle_gamma                      90
loop_
_atom_site_label
_atom_site_type_symbol
_atom_site_fract_x
_atom_site_fract_y
_atom_site_fract_z
C	C	0.5	0.206302	0.166667
C	C	0.5	0.206302	0.916667
C	C	0.5	0.248259	0.208333
C	C	0.5	0.248259	0.958333
C	C	0.5	0.290216	0.166667
C	C	0.5	0.290216	0.916667
C	C	0.5	0.332172	0.208333
C	C	0.5	0.332172	0.708333
C	C	0.5	0.332172	0.958333
C	C	0.5	0.374129	0.166667
C	C	0.5	0.374129	0.666667
C	C	0.5	0.374129	0.916667
C	C	0.5	0.416086	0.208333
C	C	0.5	0.416086	0.708333
C	C	0.5	0.416086	0.958333
C	C	0.5	0.458043	0.166667
C	C	0.5	0.458043	0.416667
C	C	0.5	0.458043	0.666667
C	C	0.5	0.458043	0.916667
C	C	0.5	0.5	0.208333
C	C	0.5	0.5	0.458333
H	H	0.5	0.174096	0.19865
H	H	0.5	0.174096	0.94865
H	H	0.5	0.248259	0.2723
H	H	0.5	0.299966	0.67635
H	H	0.5	0.374129	0.6027
H	H	0.5	0.425837	0.44865
