data_2Z_3A_W7
_audit_creation_method                 'DeviceStudio'
_symmetry_space_group_name_H-M         'PM'
_symmetry_Int_Tables_number            6
_symmetry_cell_setting                 Orthorhombic
loop_
_symmetry_equiv_pos_as_xyz
x,y,z
-x,y,z
_cell_length_a                         10
_cell_length_b                         30
_cell_length_c                         17.22
_cell_angle_alpha                      90
_cell_angle_beta                       90
_cell_angle_gamma                      90
loop_
_atom_site_label
_atom_site_type_symbol
_atom_site_fract_x
_atom_site_fract_y
_atom_site_fract_z
C	C	0.5	0.359689	0.199019
C	C	0.5	0.379967	0.44387
C	C	0.5	0.400244	0.688721
C	C	0.5	0.420522	0.933573
C	C	0.5	0.396881	0.148012
C	C	0.5	0.417159	0.392863
C	C	0.5	0.437436	0.637715
C	C	0.5	0.457714	0.882566
C	C	0.5	0.440832	0.178622
C	C	0.5	0.46111	0.423474
C	C	0.5	0.481388	0.668325
C	C	0.5	0.501666	0.913177
C	C	0.5	0.366448	0.280636
C	C	0.5	0.386726	0.525487
C	C	0.5	0.407004	0.770339
C	C	0.5	0.390122	0.0663949
C	C	0.5	0.410399	0.311246
C	C	0.5	0.430677	0.556098
C	C	0.5	0.450955	0.800949
C	C	0.5	0.478024	0.127616
C	C	0.5	0.498302	0.372467
C	C	0.5	0.51858	0.617319
C	C	0.5	0.538858	0.86217
C	C	0.5	0.521976	0.158226
C	C	0.5	0.542254	0.403078
C	C	0.5	0.562531	0.647929
C	C	0.5	0.582809	0.89278
C	C	0.5	0.427314	0.0153882
C	C	0.5	0.447591	0.26024
C	C	0.5	0.467869	0.505091
C	C	0.5	0.488147	0.749942
C	C	0.5	0.471265	0.0459987
C	C	0.5	0.491543	0.29085
C	C	0.5	0.511821	0.535701
C	C	0.5	0.532099	0.780553
C	C	0.5	0.559168	0.10722
C	C	0.5	0.579446	0.352071
C	C	0.5	0.599723	0.596922
C	C	0.5	0.620001	0.841774
C	C	0.5	0.603119	0.13783
C	C	0.5	0.508457	0.994992
C	C	0.5	0.528735	0.239843
C	C	0.5	0.549013	0.484695
C	C	0.5	0.569291	0.729546
C	C	0.5	0.589568	0.974398
C	C	0.5	0.552409	0.0256025
C	C	0.5	0.572686	0.270454
C	C	0.5	0.592964	0.515305
C	C	0.5	0.613242	0.760157
C	C	0.5	0.63352	0.00501001
C	C	0.5	0.640311	0.0868234
C	C	0.5	0.609878	0.219447
H	H	0.5	0.325951	0.175522
H	H	0.5	0.346229	0.420373
H	H	0.5	0.366507	0.665225
H	H	0.5	0.38678	0.910095
H	H	0.5	0.337899	0.319789
H	H	0.5	0.358177	0.56464
H	H	0.5	0.378455	0.809492
H	H	0.5	0.356384	0.0428981
H	H	0.5	0.613183	0.375568
H	H	0.5	0.633461	0.620419
H	H	0.5	0.653739	0.86527
H	H	0.5	0.621513	0.476152
H	H	0.5	0.641791	0.721004
H	H	0.5	0.662069	0.965855
H	H	0.5	0.674049	0.11032
H	H	0.5	0.643616	0.242944
