data_global
_cell_length_a 10
_cell_length_b 41.61
_cell_length_c 4.26
_cell_angle_alpha 90
_cell_angle_beta 90
_cell_angle_gamma 90
_symmetry_space_group_name_H-M 'P -1'
loop_
_symmetry_equiv_pos_as_xyz
  'x,y,z'
loop_
_atom_site_label
_atom_site_fract_x
_atom_site_fract_y
_atom_site_fract_z
C 0.480672 0.145596 0.657445
C 0.494382 0.173998 0.833314
C 0.515128 0.146027 0.34474
C 0.500881 0.203634 0.666106
C 0.501451 0.233338 0.833643
C 0.505081 0.17409 0.166218
C 0.500001 0.203702 0.333778
C 0.500598 0.262921 0.66705
C 0.500062 0.292538 0.833428
C 0.499346 0.23336 0.166308
C 0.499713 0.262933 0.332993
C 0.499948 0.322213 0.666535
C 0.499974 0.351848 0.833125
C 0.499923 0.292538 0.166651
C 0.499999 0.322222 0.333513
C 0.5 0.381449 0.666701
C 0.500016 0.411099 0.833461
C 0.500037 0.351845 0.166885
C 0.500043 0.381456 0.333285
C 0.500024 0.440737 0.666794
C 0.500024 0.470344 0.833236
C 0.500028 0.411104 0.166527
C 0.500016 0.440736 0.333202
C 0.500019 0.499999 0.66655
C 0.500014 0.529649 0.833242
C 0.500014 0.470349 0.166753
C 0.500019 0.499999 0.333447
C 0.500016 0.559263 0.666786
C 0.500029 0.588898 0.83343
C 0.500024 0.529654 0.166756
C 0.500024 0.559263 0.33319
C 0.500043 0.618547 0.666607
C 0.500035 0.648158 0.832887
C 0.500016 0.5889 0.166502
C 0.5 0.618553 0.333185
C 0.499996 0.67778 0.666114
C 0.499928 0.707465 0.83281
C 0.499974 0.648156 0.166651
C 0.499947 0.67779 0.333094
C 0.499732 0.737067 0.666253
C 0.499359 0.766645 0.832692
C 0.500065 0.707461 0.166035
C 0.500611 0.73708 0.332195
C 0.499982 0.796303 0.665031
C 0.505021 0.82592 0.832356
C 0.501458 0.766659 0.165387
C 0.500855 0.796368 0.332662
C 0.514995 0.853978 0.653622
C 0.494341 0.825993 0.165247
C 0.480641 0.854399 0.340837
O 0.440854 0.115555 0.747359
O 0.553055 0.115819 0.237991
O 0.552957 0.884207 0.759808
O 0.441055 0.884437 0.2504
H 0.525471 0.102097 0.419348
H 0.479572 0.11038 0.962236
H 0.47991 0.889599 0.0354039
H 0.525221 0.897881 0.578014
