data_AGNR_OH_9
_audit_creation_method                 'DeviceStudio'
_symmetry_space_group_name_H-M         'P1'
_symmetry_Int_Tables_number            1
_symmetry_cell_setting                 Orthorhombic
loop_
_symmetry_equiv_pos_as_xyz
x,y,z
_cell_length_a                         10
_cell_length_b                         21.93
_cell_length_c                         4.26
_cell_angle_alpha                      90
_cell_angle_beta                       90
_cell_angle_gamma                      90
loop_
_atom_site_label
_atom_site_type_symbol
_atom_site_fract_x
_atom_site_fract_y
_atom_site_fract_z
C	C	0.5	0.275694	0.666667
C	C	0.5	0.331771	0.833333
C	C	0.5	0.275694	0.333333
C	C	0.5	0.387847	0.666667
C	C	0.5	0.443924	0.833333
C	C	0.5	0.331771	0.166667
C	C	0.5	0.387847	0.333333
C	C	0.5	0.5	0.666667
C	C	0.5	0.556076	0.833333
C	C	0.5	0.443924	0.166667
C	C	0.5	0.5	0.333333
C	C	0.5	0.612153	0.666667
C	C	0.5	0.668229	0.833333
C	C	0.5	0.556076	0.166667
C	C	0.5	0.612153	0.333333
C	C	0.5	0.724306	0.666667
C	C	0.5	0.668229	0.166667
C	C	0.5	0.724306	0.333333
O	O	0.44	0.216414	0.751174
O	O	0.55	0.216414	0.237089
O	O	0.55	0.783586	0.751174
O	O	0.44	0.783586	0.237089
H	H	0.527	0.189055	0.41784
H	H	0.4793	0.207295	0.962441
H	H	0.4793	0.792705	0.0375587
H	H	0.527	0.810945	0.581455
