data_global
_cell_length_a 10
_cell_length_b 28.08
_cell_length_c 4.26
_cell_angle_alpha 90
_cell_angle_beta 90
_cell_angle_gamma 90
_symmetry_space_group_name_H-M 'P -1'
loop_
_symmetry_equiv_pos_as_xyz
  'x,y,z'
loop_
_atom_site_label
_atom_site_fract_x
_atom_site_fract_y
_atom_site_fract_z
C 0.5 0.216527 0.658501
C 0.5 0.258381 0.834213
C 0.5 0.216527 0.3415
C 0.5 0.302193 0.666334
C 0.5 0.346223 0.833658
C 0.5 0.258381 0.165787
C 0.5 0.302193 0.333666
C 0.5 0.390101 0.666983
C 0.5 0.43403 0.833276
C 0.5 0.346223 0.166342
C 0.5 0.390101 0.333017
C 0.5 0.478025 0.666708
C 0.5 0.521977 0.833291
C 0.5 0.43403 0.166724
C 0.5 0.478025 0.333292
C 0.5 0.565971 0.666724
C 0.5 0.6099 0.833017
C 0.5 0.521977 0.166709
C 0.5 0.565971 0.333276
C 0.5 0.653777 0.666345
C 0.5 0.697806 0.833653
C 0.5 0.6099 0.166982
C 0.5 0.653777 0.333655
C 0.5 0.741618 0.665798
C 0.5 0.783472 0.84146
C 0.5 0.697806 0.166347
C 0.5 0.741618 0.334203
C 0.5 0.783472 0.15854
F 0.5 0.171545 0.758498
F 0.5 0.171545 0.241501
F 0.5 0.828453 0.741506
F 0.500001 0.828453 0.258493
