data_global
_cell_length_a 10
_cell_length_b 30.54
_cell_length_c 4.26
_cell_angle_alpha 90
_cell_angle_beta 90
_cell_angle_gamma 90
_symmetry_space_group_name_H-M 'P -1'
loop_
_symmetry_equiv_pos_as_xyz
  'x,y,z'
loop_
_atom_site_label
_atom_site_fract_x
_atom_site_fract_y
_atom_site_fract_z
C 0.5 0.198413 0.660358
C 0.5 0.23791 0.832031
C 0.5 0.198413 0.339642
C 0.5 0.278147 0.666907
C 0.5 0.318634 0.833959
C 0.5 0.23791 0.167969
C 0.5 0.278147 0.333093
C 0.5 0.358902 0.66708
C 0.5 0.399131 0.833153
C 0.5 0.318634 0.166041
C 0.5 0.358902 0.33292
C 0.5 0.439514 0.666423
C 0.5 0.479866 0.833078
C 0.5 0.399131 0.166847
C 0.5 0.439514 0.333577
C 0.5 0.520134 0.666922
C 0.5 0.560487 0.833577
C 0.5 0.479866 0.166922
C 0.5 0.520134 0.333078
C 0.5 0.600869 0.666847
C 0.5 0.641098 0.83292
C 0.5 0.560487 0.166423
C 0.5 0.600869 0.333153
C 0.5 0.681366 0.666041
C 0.5 0.721853 0.833093
C 0.5 0.641098 0.16708
C 0.5 0.681366 0.333959
C 0.5 0.76209 0.667968
C 0.5 0.801586 0.839643
C 0.5 0.721853 0.166907
C 0.5 0.76209 0.332032
C 0.5 0.801586 0.160358
H 0.5 0.167137 0.781888
H 0.5 0.167137 0.218112
H 0.5 0.832863 0.718112
H 0.5 0.832863 0.281889
