data_ANTIDOT-13-4-6
_audit_creation_method                 'DeviceStudio'
_symmetry_space_group_name_H-M         'PMMM'
_symmetry_Int_Tables_number            47
_symmetry_cell_setting                 Orthorhombic
loop_
_symmetry_equiv_pos_as_xyz
x,y,z
-x,-y,-z
-x,y,-z
x,-y,z
-x,-y,z
x,y,-z
x,-y,-z
-x,y,z
_cell_length_a                         10
_cell_length_b                         30
_cell_length_c                         8.52
_cell_angle_alpha                      90
_cell_angle_beta                       90
_cell_angle_gamma                      90
loop_
_atom_site_label
_atom_site_type_symbol
_atom_site_fract_x
_atom_site_fract_y
_atom_site_fract_z
C	C	0.5	0.254049	0.333333
C	C	0.5	0.254049	0.833333
C	C	0.5	0.295041	0.416667
C	C	0.5	0.295041	0.916667
C	C	0.5	0.336033	0.333333
C	C	0.5	0.336033	0.833333
C	C	0.5	0.377024	0.416667
C	C	0.5	0.377024	0.916667
C	C	0.5	0.418016	0.333333
C	C	0.5	0.418016	0.833333
C	C	0.5	0.459008	0.916667
C	C	0.5	0.5	0.833333
H	H	0.5	0.222583	0.3973
H	H	0.5	0.222583	0.8973
H	H	0.5	0.449482	0.3973
H	H	0.5	0.5	0.705399
