data_global
_cell_length_a 10
_cell_length_b 30
_cell_length_c 8.87
_cell_angle_alpha 90
_cell_angle_beta 90
_cell_angle_gamma 90
_symmetry_space_group_name_H-M 'P -1'
loop_
_symmetry_equiv_pos_as_xyz
  'x,y,z'
loop_
_atom_site_label
_atom_site_fract_x
_atom_site_fract_y
_atom_site_fract_z
C 0.5 0.365284 0.479047
C 0.5 0.405541 0.942827
C 0.5 0.397694 0.361837
C 0.5 0.436825 0.827139
C 0.5 0.444052 0.402598
C 0.5 0.483553 0.865143
C 0.5 0.377857 0.626932
C 0.5 0.385642 0.210404
C 0.5 0.423592 0.670745
C 0.5 0.476893 0.28823
C 0.5 0.516443 0.750226
C 0.5 0.523102 0.327142
C 0.5 0.56317 0.788221
C 0.5 0.417809 0.0953396
C 0.5 0.456667 0.557545
C 0.5 0.464253 0.134229
C 0.5 0.503175 0.596518
C 0.5 0.555944 0.212772
C 0.5 0.594453 0.672544
C 0.5 0.602302 0.253537
C 0.5 0.496821 0.0188454
C 0.5 0.535744 0.481146
C 0.5 0.576404 0.944617
C 0.5 0.543329 0.0578275
C 0.5 0.582188 0.520022
C 0.5 0.622139 0.988453
C 0.5 0.634709 0.136307
C 0.5 0.614352 0.404968
H 0.5 0.330052 0.448379
H 0.5 0.37004 0.917652
H 0.5 0.351974 0.712801
H 0.5 0.350378 0.17987
H 0.5 0.629954 0.697727
H 0.5 0.648024 0.902566
H 0.5 0.669945 0.166991
H 0.5 0.64962 0.43549
