data_global
_cell_length_a 10
_cell_length_b 30
_cell_length_c 21.3
_cell_angle_alpha 90
_cell_angle_beta 90
_cell_angle_gamma 90
_symmetry_space_group_name_H-M 'P -1'
loop_
_symmetry_equiv_pos_as_xyz
  'x,y,z'
loop_
_atom_site_label
_atom_site_fract_x
_atom_site_fract_y
_atom_site_fract_z
C 0.5 0.295041 0.333333
C 0.5 0.295041 0.533333
C 0.5 0.295041 0.733333
C 0.5 0.336033 0.166667
C 0.5 0.336033 0.366667
C 0.5 0.336033 0.566667
C 0.5 0.336033 0.766667
C 0.5 0.336033 0.966667
C 0.5 0.295041 0.266667
C 0.5 0.295041 0.466667
C 0.5 0.295041 0.666667
C 0.5 0.377024 0.133333
C 0.5 0.377024 0.333333
C 0.5 0.377024 0.533333
C 0.5 0.377024 0.733333
C 0.5 0.377024 0.933333
C 0.5 0.418016 0.166667
C 0.5 0.418016 0.366667
C 0.5 0.418016 0.566667
C 0.5 0.418016 0.766667
C 0.5 0.418016 0.966667
C 0.5 0.336033 0.0333333
C 0.5 0.336033 0.233333
C 0.5 0.336033 0.433333
C 0.5 0.336033 0.633333
C 0.5 0.336033 0.833333
C 0.5 0.377024 0.0666667
C 0.5 0.377024 0.266667
C 0.5 0.377024 0.466667
C 0.5 0.377024 0.666667
C 0.5 0.377024 0.866667
C 0.5 0.459008 0.133333
C 0.5 0.459008 0.333333
C 0.5 0.459008 0.533333
C 0.5 0.459008 0.733333
C 0.5 0.459008 0.933333
C 0.5 0.5 0.166667
C 0.5 0.5 0.366667
C 0.5 0.5 0.566667
C 0.5 0.5 0.766667
C 0.5 0.5 0.966667
C 0.5 0.418016 0.0333333
C 0.5 0.418016 0.233333
C 0.5 0.418016 0.433333
C 0.5 0.418016 0.633333
C 0.5 0.418016 0.833333
C 0.5 0.459008 0.0666667
C 0.5 0.459008 0.266667
C 0.5 0.459008 0.466667
C 0.5 0.459008 0.666667
C 0.5 0.459008 0.866667
C 0.5 0.540992 0.133333
C 0.5 0.540992 0.333333
C 0.5 0.540992 0.533333
C 0.5 0.540992 0.733333
C 0.5 0.540992 0.933333
C 0.5 0.581984 0.166667
C 0.5 0.581984 0.366667
C 0.5 0.581984 0.566667
C 0.5 0.581984 0.766667
C 0.5 0.581984 0.966667
C 0.5 0.5 0.0333333
C 0.5 0.5 0.233333
C 0.5 0.5 0.433333
C 0.5 0.5 0.633333
C 0.5 0.5 0.833333
C 0.5 0.540992 0.0666667
C 0.5 0.540992 0.266667
C 0.5 0.540992 0.466667
C 0.5 0.540992 0.666667
C 0.5 0.540992 0.866667
C 0.5 0.622976 0.133333
C 0.5 0.622976 0.333333
C 0.5 0.622976 0.533333
C 0.5 0.622976 0.733333
C 0.5 0.622976 0.933333
C 0.5 0.663967 0.166667
C 0.5 0.663967 0.366667
C 0.5 0.663967 0.566667
C 0.5 0.663967 0.766667
C 0.5 0.663967 0.966667
C 0.5 0.581984 0.0333333
C 0.5 0.581984 0.233333
C 0.5 0.581984 0.433333
C 0.5 0.581984 0.633333
C 0.5 0.581984 0.833333
C 0.5 0.622976 0.0666667
C 0.5 0.622976 0.266667
C 0.5 0.622976 0.466667
C 0.5 0.622976 0.666667
C 0.5 0.622976 0.866667
C 0.5 0.704959 0.333333
C 0.5 0.704959 0.533333
C 0.5 0.704959 0.733333
C 0.5 0.663967 0.0333333
C 0.5 0.663967 0.233333
C 0.5 0.663967 0.433333
C 0.5 0.663967 0.633333
C 0.5 0.663967 0.833333
C 0.5 0.704959 0.266667
C 0.5 0.704959 0.466667
C 0.5 0.704959 0.666667
H 0.5 0.263575 0.35892
H 0.5 0.263575 0.55892
H 0.5 0.263575 0.75892
H 0.5 0.263575 0.24108
H 0.5 0.263575 0.44108
H 0.5 0.263575 0.64108
H 0.5 0.736425 0.35892
H 0.5 0.736425 0.55892
H 0.5 0.736425 0.75892
H 0.5 0.736425 0.24108
H 0.5 0.736425 0.44108
H 0.5 0.736425 0.64108
H 0.5 0.304567 0.14108
H 0.5 0.304567 0.94108
H 0.5 0.304567 0.0589202
H 0.5 0.304567 0.85892
H 0.5 0.695433 0.14108
H 0.5 0.695433 0.94108
H 0.5 0.695433 0.0589202
H 0.5 0.695433 0.85892
