data_global
_cell_length_a 10
_cell_length_b 33
_cell_length_c 4.26
_cell_angle_alpha 90
_cell_angle_beta 90
_cell_angle_gamma 90
_symmetry_space_group_name_H-M 'P -1'
loop_
_symmetry_equiv_pos_as_xyz
  'x,y,z'
loop_
_atom_site_label
_atom_site_fract_x
_atom_site_fract_y
_atom_site_fract_z
C 0.480332 0.183685 0.657669
C 0.494235 0.219513 0.833229
C 0.514518 0.184226 0.34463
C 0.500733 0.256919 0.666035
C 0.501546 0.294416 0.833354
C 0.504585 0.21963 0.16637
C 0.499843 0.257012 0.33374
C 0.500932 0.33174 0.666944
C 0.500233 0.369125 0.833161
C 0.499337 0.294461 0.166261
C 0.499731 0.33177 0.332591
C 0.499839 0.406583 0.666166
C 0.499816 0.443954 0.83221
C 0.5 0.369145 0.16627
C 0.500072 0.406608 0.332956
C 0.499925 0.481303 0.665458
C 0.500015 0.518745 0.831918
C 0.500043 0.443951 0.166276
C 0.500005 0.48132 0.33221
C 0.500133 0.5561 0.66554
C 0.500188 0.593448 0.832144
C 0.499954 0.518741 0.165144
C 0.499889 0.556096 0.331523
C 0.499882 0.630893 0.665416
C 0.499243 0.668275 0.831607
C 0.499912 0.593445 0.165328
C 0.500114 0.630897 0.33229
C 0.498794 0.705571 0.664992
C 0.499748 0.743063 0.832128
C 0.500534 0.668242 0.165934
C 0.501107 0.705556 0.33213
C 0.505782 0.780456 0.664693
C 0.518717 0.816304 0.840002
C 0.500612 0.742982 0.164375
C 0.495231 0.780359 0.331589
C 0.484309 0.815723 0.153017
O 0.44087 0.145782 0.747522
O 0.552818 0.146153 0.237904
O 0.44529 0.85376 0.259252
O 0.557466 0.85424 0.749337
H 0.4793 0.139349 0.96294
H 0.526325 0.128731 0.419364
H 0.471952 0.871134 0.0774969
H 0.51869 0.860594 0.53394
