data_global
_cell_length_a 10
_cell_length_b 21.0678
_cell_length_c 17.04
_cell_angle_alpha 90
_cell_angle_beta 90
_cell_angle_gamma 90
_symmetry_space_group_name_H-M 'P -1'
loop_
_symmetry_equiv_pos_as_xyz
  'x,y,z'
loop_
_atom_site_label
_atom_site_fract_x
_atom_site_fract_y
_atom_site_fract_z
C 0.5 0.237329 0.0416667
C 0.5 0.237329 0.291667
C 0.5 0.237329 0.541667
C 0.5 0.237329 0.791667
C 0.5 0.2957 0.0833333
C 0.5 0.2957 0.333333
C 0.5 0.2957 0.583333
C 0.5 0.2957 0.833333
C 0.5 0.237329 0.208333
C 0.5 0.237329 0.458333
C 0.5 0.237329 0.708333
C 0.5 0.237329 0.958333
C 0.5 0.354072 0.0416667
C 0.5 0.354072 0.291667
C 0.5 0.354072 0.541667
C 0.5 0.354072 0.791667
C 0.5 0.412443 0.0833333
C 0.5 0.412443 0.333333
C 0.5 0.412443 0.583333
C 0.5 0.412443 0.833333
C 0.5 0.2957 0.166667
C 0.5 0.2957 0.416667
C 0.5 0.2957 0.666667
C 0.5 0.2957 0.916667
C 0.5 0.354072 0.208333
C 0.5 0.354072 0.458333
C 0.5 0.354072 0.708333
C 0.5 0.354072 0.958333
C 0.5 0.470814 0.0416667
C 0.5 0.470814 0.291667
C 0.5 0.470814 0.541667
C 0.5 0.470814 0.791667
C 0.5 0.529186 0.0833333
C 0.5 0.529186 0.333333
C 0.5 0.529186 0.583333
C 0.5 0.529186 0.833333
C 0.5 0.412443 0.166667
C 0.5 0.412443 0.416667
C 0.5 0.412443 0.666667
C 0.5 0.412443 0.916667
C 0.5 0.470814 0.208333
C 0.5 0.470814 0.458333
C 0.5 0.470814 0.708333
C 0.5 0.470814 0.958333
C 0.5 0.587557 0.0416667
C 0.5 0.587557 0.291667
C 0.5 0.587557 0.541667
C 0.5 0.587557 0.791667
C 0.5 0.645928 0.0833333
C 0.5 0.645928 0.333333
C 0.5 0.645928 0.583333
C 0.5 0.645928 0.833333
C 0.5 0.529186 0.166667
C 0.5 0.529186 0.416667
C 0.5 0.529186 0.666667
C 0.5 0.529186 0.916667
C 0.5 0.587557 0.208333
C 0.5 0.587557 0.458333
C 0.5 0.587557 0.708333
C 0.5 0.587557 0.958333
C 0.5 0.7043 0.0416667
C 0.5 0.7043 0.291667
C 0.5 0.7043 0.791667
C 0.5 0.762671 0.0833333
C 0.5 0.762671 0.333333
C 0.5 0.762671 0.833333
C 0.5 0.645928 0.166667
C 0.5 0.645928 0.416667
C 0.5 0.645928 0.666667
C 0.5 0.645928 0.916667
C 0.5 0.7043 0.208333
C 0.5 0.7043 0.458333
C 0.5 0.7043 0.708333
C 0.5 0.7043 0.958333
C 0.5 0.762671 0.166667
C 0.5 0.762671 0.666667
C 0.5 0.762671 0.916667
H 0.5 0.192523 0.0736502
H 0.5 0.192523 0.32365
H 0.5 0.192523 0.57365
H 0.5 0.192523 0.82365
H 0.5 0.192523 0.17635
H 0.5 0.192523 0.42635
H 0.5 0.192523 0.67635
H 0.5 0.192523 0.92635
H 0.5 0.807477 0.0513498
H 0.5 0.807477 0.30135
H 0.5 0.807477 0.80135
H 0.5 0.807477 0.19865
H 0.5 0.807477 0.69865
H 0.5 0.807477 0.94865
H 0.5 0.690735 0.55135
H 0.5 0.762671 0.3973
H 0.5 0.749106 0.42635
H 0.5 0.7043 0.5223
H 0.5 0.762671 0.6027
