data_global
_cell_length_a 10
_cell_length_b 34.23
_cell_length_c 4.26
_cell_angle_alpha 90
_cell_angle_beta 90
_cell_angle_gamma 90
_symmetry_space_group_name_H-M 'P -1'
loop_
_symmetry_equiv_pos_as_xyz
  'x,y,z'
loop_
_atom_site_label
_atom_site_fract_x
_atom_site_fract_y
_atom_site_fract_z
C 0.480569 0.177034 0.657528
C 0.494294 0.211551 0.833359
C 0.514878 0.177554 0.344852
C 0.500923 0.24758 0.666047
C 0.501724 0.283707 0.83357
C 0.504954 0.211668 0.166195
C 0.499893 0.247675 0.333697
C 0.500794 0.319691 0.666978
C 0.500032 0.355705 0.833368
C 0.499221 0.283741 0.166176
C 0.499755 0.31971 0.332934
C 0.499872 0.391809 0.666509
C 0.499982 0.427884 0.83314
C 0.500072 0.355707 0.166626
C 0.500072 0.391805 0.333542
C 0.500052 0.463917 0.666748
C 0.500047 0.500011 0.833346
C 0.50002 0.427873 0.166906
C 0.500023 0.463914 0.333175
C 0.500021 0.536096 0.666507
C 0.500016 0.572129 0.832699
C 0.500047 0.5 0.166375
C 0.500051 0.536089 0.332943
C 0.500073 0.608193 0.66593
C 0.500085 0.644294 0.832661
C 0.49998 0.572119 0.166456
C 0.49987 0.60819 0.332962
C 0.499773 0.68029 0.666196
C 0.499223 0.716263 0.83276
C 0.500041 0.644291 0.165931
C 0.500811 0.680312 0.332115
C 0.499868 0.752323 0.665067
C 0.504895 0.788332 0.832388
C 0.501722 0.716293 0.165372
C 0.500898 0.75242 0.332729
C 0.514781 0.822441 0.653653
C 0.494279 0.788441 0.165208
C 0.480565 0.822963 0.340885
O 0.440788 0.140536 0.747625
O 0.552879 0.140854 0.237954
O 0.552805 0.859166 0.760156
O 0.440945 0.859472 0.250591
H 0.525968 0.124082 0.419188
H 0.479541 0.134304 0.962417
H 0.47973 0.865692 0.0356964
H 0.525767 0.875882 0.578664
