data_global
_cell_length_a 10
_cell_length_b 50.22
_cell_length_c 4.26
_cell_angle_alpha 90
_cell_angle_beta 90
_cell_angle_gamma 90
_symmetry_space_group_name_H-M 'P -1'
loop_
_symmetry_equiv_pos_as_xyz
  'x,y,z'
loop_
_atom_site_label
_atom_site_fract_x
_atom_site_fract_y
_atom_site_fract_z
C 0.5 0.120446 0.666667
C 0.5 0.144933 0.833333
C 0.5 0.120446 0.333333
C 0.5 0.16942 0.666667
C 0.5 0.193908 0.833333
C 0.5 0.144933 0.166667
C 0.5 0.16942 0.333333
C 0.5 0.218395 0.666667
C 0.5 0.242883 0.833333
C 0.5 0.193908 0.166667
C 0.5 0.218395 0.333333
C 0.5 0.26737 0.666667
C 0.5 0.291857 0.833333
C 0.5 0.242883 0.166667
C 0.5 0.26737 0.333333
C 0.5 0.316345 0.666667
C 0.5 0.340832 0.833333
C 0.5 0.291857 0.166667
C 0.5 0.316345 0.333333
C 0.5 0.365319 0.666667
C 0.5 0.389807 0.833333
C 0.5 0.340832 0.166667
C 0.5 0.365319 0.333333
C 0.5 0.414294 0.666667
C 0.5 0.438782 0.833333
C 0.5 0.389807 0.166667
C 0.5 0.414294 0.333333
C 0.5 0.463269 0.666667
C 0.5 0.487756 0.833333
C 0.5 0.438782 0.166667
C 0.5 0.463269 0.333333
C 0.5 0.512244 0.666667
C 0.5 0.536731 0.833333
C 0.5 0.487756 0.166667
C 0.5 0.512244 0.333333
C 0.5 0.561218 0.666667
C 0.5 0.585706 0.833333
C 0.5 0.536731 0.166667
C 0.5 0.561218 0.333333
C 0.5 0.610193 0.666667
C 0.5 0.634681 0.833333
C 0.5 0.585706 0.166667
C 0.5 0.610193 0.333333
C 0.5 0.659168 0.666667
C 0.5 0.683655 0.833333
C 0.5 0.634681 0.166667
C 0.5 0.659168 0.333333
C 0.5 0.708143 0.666667
C 0.5 0.73263 0.833333
C 0.5 0.683655 0.166667
C 0.5 0.708143 0.333333
C 0.5 0.757117 0.666667
C 0.5 0.781605 0.833333
C 0.5 0.73263 0.166667
C 0.5 0.757117 0.333333
C 0.5 0.806092 0.666667
C 0.5 0.83058 0.833333
C 0.5 0.781605 0.166667
C 0.5 0.806092 0.333333
C 0.5 0.855067 0.666667
C 0.5 0.879554 0.833333
C 0.5 0.83058 0.166667
C 0.5 0.855067 0.333333
C 0.5 0.879554 0.166667
H 0.5 0.101649 0.794601
H 0.5 0.101649 0.205399
H 0.5 0.898351 0.705399
H 0.5 0.898351 0.294601
