data_global
_cell_length_a 10
_cell_length_b 40.38
_cell_length_c 4.26
_cell_angle_alpha 90
_cell_angle_beta 90
_cell_angle_gamma 90
_symmetry_space_group_name_H-M 'P -1'
loop_
_symmetry_equiv_pos_as_xyz
  'x,y,z'
loop_
_atom_site_label
_atom_site_fract_x
_atom_site_fract_y
_atom_site_fract_z
C 0.5 0.149772 0.666667
C 0.5 0.180227 0.833333
C 0.5 0.149772 0.333333
C 0.5 0.210681 0.666667
C 0.5 0.241136 0.833333
C 0.5 0.180227 0.166667
C 0.5 0.210681 0.333333
C 0.5 0.271591 0.666667
C 0.5 0.302045 0.833333
C 0.5 0.241136 0.166667
C 0.5 0.271591 0.333333
C 0.5 0.3325 0.666667
C 0.5 0.362954 0.833333
C 0.5 0.302045 0.166667
C 0.5 0.3325 0.333333
C 0.5 0.393409 0.666667
C 0.5 0.423864 0.833333
C 0.5 0.362954 0.166667
C 0.5 0.393409 0.333333
C 0.5 0.454318 0.666667
C 0.5 0.484773 0.833333
C 0.5 0.423864 0.166667
C 0.5 0.454318 0.333333
C 0.5 0.515227 0.666667
C 0.5 0.545682 0.833333
C 0.5 0.484773 0.166667
C 0.5 0.515227 0.333333
C 0.5 0.576136 0.666667
C 0.5 0.606591 0.833333
C 0.5 0.545682 0.166667
C 0.5 0.576136 0.333333
C 0.5 0.637046 0.666667
C 0.5 0.6675 0.833333
C 0.5 0.606591 0.166667
C 0.5 0.637046 0.333333
C 0.5 0.697955 0.666667
C 0.5 0.728409 0.833333
C 0.5 0.6675 0.166667
C 0.5 0.697955 0.333333
C 0.5 0.758864 0.666667
C 0.5 0.789319 0.833333
C 0.5 0.728409 0.166667
C 0.5 0.758864 0.333333
C 0.5 0.819773 0.666667
C 0.5 0.850228 0.833333
C 0.5 0.789319 0.166667
C 0.5 0.819773 0.333333
C 0.5 0.850228 0.166667
H 0.5 0.126395 0.794601
H 0.5 0.126395 0.205399
H 0.5 0.873605 0.705399
H 0.5 0.873605 0.294601
