data_global
_cell_length_a 10
_cell_length_b 24.39
_cell_length_c 4.26
_cell_angle_alpha 90
_cell_angle_beta 90
_cell_angle_gamma 90
_symmetry_space_group_name_H-M 'P -1'
loop_
_symmetry_equiv_pos_as_xyz
  'x,y,z'
loop_
_atom_site_label
_atom_site_fract_x
_atom_site_fract_y
_atom_site_fract_z
C 0.5 0.247897 0.666667
C 0.5 0.298318 0.833333
C 0.5 0.247897 0.333333
C 0.5 0.348738 0.666667
C 0.5 0.399159 0.833333
C 0.5 0.298318 0.166667
C 0.5 0.348738 0.333333
C 0.5 0.449579 0.666667
C 0.5 0.5 0.833333
C 0.5 0.399159 0.166667
C 0.5 0.449579 0.333333
C 0.5 0.550421 0.666667
C 0.5 0.600841 0.833333
C 0.5 0.5 0.166667
C 0.5 0.550421 0.333333
C 0.5 0.651262 0.666667
C 0.5 0.701682 0.833333
C 0.5 0.600841 0.166667
C 0.5 0.651262 0.333333
C 0.5 0.752103 0.666667
C 0.5 0.701682 0.166667
C 0.5 0.752103 0.333333
H 0.5 0.209194 0.794601
H 0.5 0.209194 0.205399
H 0.5 0.790806 0.794601
H 0.5 0.790806 0.205399
