data_global
_cell_length_a 10
_cell_length_b 21.93
_cell_length_c 4.26
_cell_angle_alpha 90
_cell_angle_beta 90
_cell_angle_gamma 90
_symmetry_space_group_name_H-M 'P -1'
loop_
_symmetry_equiv_pos_as_xyz
  'x,y,z'
loop_
_atom_site_label
_atom_site_fract_x
_atom_site_fract_y
_atom_site_fract_z
C 0.5 0.275694 0.666667
C 0.5 0.331771 0.833333
C 0.5 0.275694 0.333333
C 0.5 0.387847 0.666667
C 0.5 0.443924 0.833333
C 0.5 0.331771 0.166667
C 0.5 0.387847 0.333333
C 0.5 0.5 0.666667
C 0.5 0.556076 0.833333
C 0.5 0.443924 0.166667
C 0.5 0.5 0.333333
C 0.5 0.612153 0.666667
C 0.5 0.668229 0.833333
C 0.5 0.556076 0.166667
C 0.5 0.612153 0.333333
C 0.5 0.724306 0.666667
C 0.5 0.668229 0.166667
C 0.5 0.724306 0.333333
H 0.5 0.23265 0.794601
H 0.5 0.23265 0.205399
H 0.5 0.76735 0.794601
H 0.5 0.76735 0.205399
