data_global
_cell_length_a 10
_cell_length_b 20.7
_cell_length_c 4.26
_cell_angle_alpha 90
_cell_angle_beta 90
_cell_angle_gamma 90
_symmetry_space_group_name_H-M 'P -1'
loop_
_symmetry_equiv_pos_as_xyz
  'x,y,z'
loop_
_atom_site_label
_atom_site_fract_x
_atom_site_fract_y
_atom_site_fract_z
C 0.5 0.29207 0.666667
C 0.5 0.351479 0.833333
C 0.5 0.29207 0.333333
C 0.5 0.410887 0.666667
C 0.5 0.470296 0.833333
C 0.5 0.351479 0.166667
C 0.5 0.410887 0.333333
C 0.5 0.529704 0.666667
C 0.5 0.589113 0.833333
C 0.5 0.470296 0.166667
C 0.5 0.529704 0.333333
C 0.5 0.648521 0.666667
C 0.5 0.70793 0.833333
C 0.5 0.589113 0.166667
C 0.5 0.648521 0.333333
C 0.5 0.70793 0.166667
H 0.5 0.246468 0.794601
H 0.5 0.246468 0.205399
H 0.5 0.753532 0.705399
H 0.5 0.753532 0.294601
