data_global
_cell_length_a 10
_cell_length_b 47.76
_cell_length_c 4.26
_cell_angle_alpha 90
_cell_angle_beta 90
_cell_angle_gamma 90
_symmetry_space_group_name_H-M 'P -1'
loop_
_symmetry_equiv_pos_as_xyz
  'x,y,z'
loop_
_atom_site_label
_atom_site_fract_x
_atom_site_fract_y
_atom_site_fract_z
C 0.5 0.126644 0.666667
C 0.5 0.152393 0.833333
C 0.5 0.126644 0.333333
C 0.5 0.178142 0.666667
C 0.5 0.20389 0.833333
C 0.5 0.152393 0.166667
C 0.5 0.178142 0.333333
C 0.5 0.229639 0.666667
C 0.5 0.255388 0.833333
C 0.5 0.20389 0.166667
C 0.5 0.229639 0.333333
C 0.5 0.281136 0.666667
C 0.5 0.306885 0.833333
C 0.5 0.255388 0.166667
C 0.5 0.281136 0.333333
C 0.5 0.332634 0.666667
C 0.5 0.358382 0.833333
C 0.5 0.306885 0.166667
C 0.5 0.332634 0.333333
C 0.5 0.384131 0.666667
C 0.5 0.40988 0.833333
C 0.5 0.358382 0.166667
C 0.5 0.384131 0.333333
C 0.5 0.435628 0.666667
C 0.5 0.461377 0.833333
C 0.5 0.40988 0.166667
C 0.5 0.435628 0.333333
C 0.5 0.487126 0.666667
C 0.5 0.512874 0.833333
C 0.5 0.461377 0.166667
C 0.5 0.487126 0.333333
C 0.5 0.538623 0.666667
C 0.5 0.564372 0.833333
C 0.5 0.512874 0.166667
C 0.5 0.538623 0.333333
C 0.5 0.59012 0.666667
C 0.5 0.615869 0.833333
C 0.5 0.564372 0.166667
C 0.5 0.59012 0.333333
C 0.5 0.641618 0.666667
C 0.5 0.667366 0.833333
C 0.5 0.615869 0.166667
C 0.5 0.641618 0.333333
C 0.5 0.693115 0.666667
C 0.5 0.718864 0.833333
C 0.5 0.667366 0.166667
C 0.5 0.693115 0.333333
C 0.5 0.744612 0.666667
C 0.5 0.770361 0.833333
C 0.5 0.718864 0.166667
C 0.5 0.744612 0.333333
C 0.5 0.79611 0.666667
C 0.5 0.821858 0.833333
C 0.5 0.770361 0.166667
C 0.5 0.79611 0.333333
C 0.5 0.847607 0.666667
C 0.5 0.873356 0.833333
C 0.5 0.821858 0.166667
C 0.5 0.847607 0.333333
C 0.5 0.873356 0.166667
H 0.5 0.10688 0.794601
H 0.5 0.10688 0.205399
H 0.5 0.89312 0.705399
H 0.5 0.89312 0.294601
