data_global
_cell_length_a 10
_cell_length_b 29.31
_cell_length_c 4.26
_cell_angle_alpha 90
_cell_angle_beta 90
_cell_angle_gamma 90
_symmetry_space_group_name_H-M 'P -1'
loop_
_symmetry_equiv_pos_as_xyz
  'x,y,z'
loop_
_atom_site_label
_atom_site_fract_x
_atom_site_fract_y
_atom_site_fract_z
C 0.5 0.206302 0.666667
C 0.5 0.248259 0.833333
C 0.5 0.206302 0.333333
C 0.5 0.290216 0.666667
C 0.5 0.332172 0.833333
C 0.5 0.248259 0.166667
C 0.5 0.290216 0.333333
C 0.5 0.374129 0.666667
C 0.5 0.416086 0.833333
C 0.5 0.332172 0.166667
C 0.5 0.374129 0.333333
C 0.5 0.458043 0.666667
C 0.5 0.5 0.833333
C 0.5 0.416086 0.166667
C 0.5 0.458043 0.333333
C 0.5 0.541957 0.666667
C 0.5 0.583914 0.833333
C 0.5 0.5 0.166667
C 0.5 0.541957 0.333333
C 0.5 0.625871 0.666667
C 0.5 0.667828 0.833333
C 0.5 0.583914 0.166667
C 0.5 0.625871 0.333333
C 0.5 0.709784 0.666667
C 0.5 0.751741 0.833333
C 0.5 0.667828 0.166667
C 0.5 0.709784 0.333333
C 0.5 0.793698 0.666667
C 0.5 0.751741 0.166667
C 0.5 0.793698 0.333333
H 0.5 0.174096 0.794601
H 0.5 0.174096 0.205399
H 0.5 0.825904 0.794601
H 0.5 0.825904 0.205399
