data_global
_cell_length_a 10
_cell_length_b 48.99
_cell_length_c 4.26
_cell_angle_alpha 90
_cell_angle_beta 90
_cell_angle_gamma 90
_symmetry_space_group_name_H-M 'P -1'
loop_
_symmetry_equiv_pos_as_xyz
  'x,y,z'
loop_
_atom_site_label
_atom_site_fract_x
_atom_site_fract_y
_atom_site_fract_z
C 0.5 0.123467 0.666667
C 0.5 0.148569 0.833333
C 0.5 0.123467 0.333333
C 0.5 0.173672 0.666667
C 0.5 0.198774 0.833333
C 0.5 0.148569 0.166667
C 0.5 0.173672 0.333333
C 0.5 0.223876 0.666667
C 0.5 0.248978 0.833333
C 0.5 0.198774 0.166667
C 0.5 0.223876 0.333333
C 0.5 0.27408 0.666667
C 0.5 0.299183 0.833333
C 0.5 0.248978 0.166667
C 0.5 0.27408 0.333333
C 0.5 0.324285 0.666667
C 0.5 0.349387 0.833333
C 0.5 0.299183 0.166667
C 0.5 0.324285 0.333333
C 0.5 0.374489 0.666667
C 0.5 0.399591 0.833333
C 0.5 0.349387 0.166667
C 0.5 0.374489 0.333333
C 0.5 0.424693 0.666667
C 0.5 0.449796 0.833333
C 0.5 0.399591 0.166667
C 0.5 0.424693 0.333333
C 0.5 0.474898 0.666667
C 0.5 0.5 0.833333
C 0.5 0.449796 0.166667
C 0.5 0.474898 0.333333
C 0.5 0.525102 0.666667
C 0.5 0.550204 0.833333
C 0.5 0.5 0.166667
C 0.5 0.525102 0.333333
C 0.5 0.575307 0.666667
C 0.5 0.600409 0.833333
C 0.5 0.550204 0.166667
C 0.5 0.575307 0.333333
C 0.5 0.625511 0.666667
C 0.5 0.650613 0.833333
C 0.5 0.600409 0.166667
C 0.5 0.625511 0.333333
C 0.5 0.675715 0.666667
C 0.5 0.700817 0.833333
C 0.5 0.650613 0.166667
C 0.5 0.675715 0.333333
C 0.5 0.72592 0.666667
C 0.5 0.751022 0.833333
C 0.5 0.700817 0.166667
C 0.5 0.72592 0.333333
C 0.5 0.776124 0.666667
C 0.5 0.801226 0.833333
C 0.5 0.751022 0.166667
C 0.5 0.776124 0.333333
C 0.5 0.826328 0.666667
C 0.5 0.851431 0.833333
C 0.5 0.801226 0.166667
C 0.5 0.826328 0.333333
C 0.5 0.876533 0.666667
C 0.5 0.851431 0.166667
C 0.5 0.876533 0.333333
H 0.5 0.104199 0.794601
H 0.5 0.104199 0.205399
H 0.5 0.895801 0.794601
H 0.5 0.895801 0.205399
