data_global
_cell_length_a 10
_cell_length_b 51.45
_cell_length_c 4.26
_cell_angle_alpha 90
_cell_angle_beta 90
_cell_angle_gamma 90
_symmetry_space_group_name_H-M 'P -1'
loop_
_symmetry_equiv_pos_as_xyz
  'x,y,z'
loop_
_atom_site_label
_atom_site_fract_x
_atom_site_fract_y
_atom_site_fract_z
C 0.5 0.117569 0.666667
C 0.5 0.141471 0.833333
C 0.5 0.117569 0.333333
C 0.5 0.165372 0.666667
C 0.5 0.189274 0.833333
C 0.5 0.141471 0.166667
C 0.5 0.165372 0.333333
C 0.5 0.213176 0.666667
C 0.5 0.237078 0.833333
C 0.5 0.189274 0.166667
C 0.5 0.213176 0.333333
C 0.5 0.26098 0.666667
C 0.5 0.284882 0.833333
C 0.5 0.237078 0.166667
C 0.5 0.26098 0.333333
C 0.5 0.308784 0.666667
C 0.5 0.332686 0.833333
C 0.5 0.284882 0.166667
C 0.5 0.308784 0.333333
C 0.5 0.356588 0.666667
C 0.5 0.38049 0.833333
C 0.5 0.332686 0.166667
C 0.5 0.356588 0.333333
C 0.5 0.404392 0.666667
C 0.5 0.428294 0.833333
C 0.5 0.38049 0.166667
C 0.5 0.404392 0.333333
C 0.5 0.452196 0.666667
C 0.5 0.476098 0.833333
C 0.5 0.428294 0.166667
C 0.5 0.452196 0.333333
C 0.5 0.5 0.666667
C 0.5 0.523902 0.833333
C 0.5 0.476098 0.166667
C 0.5 0.5 0.333333
C 0.5 0.547804 0.666667
C 0.5 0.571706 0.833333
C 0.5 0.523902 0.166667
C 0.5 0.547804 0.333333
C 0.5 0.595608 0.666667
C 0.5 0.61951 0.833333
C 0.5 0.571706 0.166667
C 0.5 0.595608 0.333333
C 0.5 0.643412 0.666667
C 0.5 0.667314 0.833333
C 0.5 0.61951 0.166667
C 0.5 0.643412 0.333333
C 0.5 0.691216 0.666667
C 0.5 0.715118 0.833333
C 0.5 0.667314 0.166667
C 0.5 0.691216 0.333333
C 0.5 0.73902 0.666667
C 0.5 0.762922 0.833333
C 0.5 0.715118 0.166667
C 0.5 0.73902 0.333333
C 0.5 0.786824 0.666667
C 0.5 0.810726 0.833333
C 0.5 0.762922 0.166667
C 0.5 0.786824 0.333333
C 0.5 0.834628 0.666667
C 0.5 0.858529 0.833333
C 0.5 0.810726 0.166667
C 0.5 0.834628 0.333333
C 0.5 0.882431 0.666667
C 0.5 0.858529 0.166667
C 0.5 0.882431 0.333333
H 0.5 0.0992213 0.794601
H 0.5 0.0992213 0.205399
H 0.5 0.900779 0.794601
H 0.5 0.900779 0.205399
