data_global
_cell_length_a 10
_cell_length_b 35.46
_cell_length_c 4.26
_cell_angle_alpha 90
_cell_angle_beta 90
_cell_angle_gamma 90
_symmetry_space_group_name_H-M 'P -1'
loop_
_symmetry_equiv_pos_as_xyz
  'x,y,z'
loop_
_atom_site_label
_atom_site_fract_x
_atom_site_fract_y
_atom_site_fract_z
C 0.5 0.170539 0.666667
C 0.5 0.205219 0.833333
C 0.5 0.170539 0.333333
C 0.5 0.239899 0.666667
C 0.5 0.274579 0.833333
C 0.5 0.205219 0.166667
C 0.5 0.239899 0.333333
C 0.5 0.309259 0.666667
C 0.5 0.34394 0.833333
C 0.5 0.274579 0.166667
C 0.5 0.309259 0.333333
C 0.5 0.37862 0.666667
C 0.5 0.4133 0.833333
C 0.5 0.34394 0.166667
C 0.5 0.37862 0.333333
C 0.5 0.44798 0.666667
C 0.5 0.48266 0.833333
C 0.5 0.4133 0.166667
C 0.5 0.44798 0.333333
C 0.5 0.51734 0.666667
C 0.5 0.55202 0.833333
C 0.5 0.48266 0.166667
C 0.5 0.51734 0.333333
C 0.5 0.5867 0.666667
C 0.5 0.62138 0.833333
C 0.5 0.55202 0.166667
C 0.5 0.5867 0.333333
C 0.5 0.65606 0.666667
C 0.5 0.690741 0.833333
C 0.5 0.62138 0.166667
C 0.5 0.65606 0.333333
C 0.5 0.725421 0.666667
C 0.5 0.760101 0.833333
C 0.5 0.690741 0.166667
C 0.5 0.725421 0.333333
C 0.5 0.794781 0.666667
C 0.5 0.829461 0.833333
C 0.5 0.760101 0.166667
C 0.5 0.794781 0.333333
C 0.5 0.829461 0.166667
H 0.5 0.143918 0.794601
H 0.5 0.143918 0.205399
H 0.5 0.856082 0.705399
H 0.5 0.856082 0.294601
