data_global
_cell_length_a 10
_cell_length_b 26.85
_cell_length_c 4.26
_cell_angle_alpha 90
_cell_angle_beta 90
_cell_angle_gamma 90
_symmetry_space_group_name_H-M 'P -1'
loop_
_symmetry_equiv_pos_as_xyz
  'x,y,z'
loop_
_atom_site_label
_atom_site_fract_x
_atom_site_fract_y
_atom_site_fract_z
C 0.5 0.225194 0.666667
C 0.5 0.270995 0.833333
C 0.5 0.225194 0.333333
C 0.5 0.316796 0.666667
C 0.5 0.362597 0.833333
C 0.5 0.270995 0.166667
C 0.5 0.316796 0.333333
C 0.5 0.408398 0.666667
C 0.5 0.454199 0.833333
C 0.5 0.362597 0.166667
C 0.5 0.408398 0.333333
C 0.5 0.5 0.666667
C 0.5 0.545801 0.833333
C 0.5 0.454199 0.166667
C 0.5 0.5 0.333333
C 0.5 0.591602 0.666667
C 0.5 0.637403 0.833333
C 0.5 0.545801 0.166667
C 0.5 0.591602 0.333333
C 0.5 0.683204 0.666667
C 0.5 0.729005 0.833333
C 0.5 0.637403 0.166667
C 0.5 0.683204 0.333333
C 0.5 0.774806 0.666667
C 0.5 0.729005 0.166667
C 0.5 0.774806 0.333333
H 0.5 0.190037 0.794601
H 0.5 0.190037 0.205399
H 0.5 0.809963 0.794601
H 0.5 0.809963 0.205399
