data_global
_cell_length_a 10
_cell_length_b 30.54
_cell_length_c 4.26
_cell_angle_alpha 90
_cell_angle_beta 90
_cell_angle_gamma 90
_symmetry_space_group_name_H-M 'P -1'
loop_
_symmetry_equiv_pos_as_xyz
  'x,y,z'
loop_
_atom_site_label
_atom_site_fract_x
_atom_site_fract_y
_atom_site_fract_z
C 0.5 0.197997 0.666667
C 0.5 0.238264 0.833333
C 0.5 0.197997 0.333333
C 0.5 0.278531 0.666667
C 0.5 0.318798 0.833333
C 0.5 0.238264 0.166667
C 0.5 0.278531 0.333333
C 0.5 0.359065 0.666667
C 0.5 0.399332 0.833333
C 0.5 0.318798 0.166667
C 0.5 0.359065 0.333333
C 0.5 0.439599 0.666667
C 0.5 0.479866 0.833333
C 0.5 0.399332 0.166667
C 0.5 0.439599 0.333333
C 0.5 0.520134 0.666667
C 0.5 0.560401 0.833333
C 0.5 0.479866 0.166667
C 0.5 0.520134 0.333333
C 0.5 0.600668 0.666667
C 0.5 0.640935 0.833333
C 0.5 0.560401 0.166667
C 0.5 0.600668 0.333333
C 0.5 0.681202 0.666667
C 0.5 0.721469 0.833333
C 0.5 0.640935 0.166667
C 0.5 0.681202 0.333333
C 0.5 0.761736 0.666667
C 0.5 0.802003 0.833333
C 0.5 0.721469 0.166667
C 0.5 0.761736 0.333333
C 0.5 0.802003 0.166667
H 0.5 0.167088 0.794601
H 0.5 0.167088 0.205399
H 0.5 0.832912 0.705399
H 0.5 0.832912 0.294601
