data_global
_cell_length_a 10
_cell_length_b 31.77
_cell_length_c 4.26
_cell_angle_alpha 90
_cell_angle_beta 90
_cell_angle_gamma 90
_symmetry_space_group_name_H-M 'P -1'
loop_
_symmetry_equiv_pos_as_xyz
  'x,y,z'
loop_
_atom_site_label
_atom_site_fract_x
_atom_site_fract_y
_atom_site_fract_z
C 0.5 0.190335 0.666667
C 0.5 0.229043 0.833333
C 0.5 0.190335 0.333333
C 0.5 0.267751 0.666667
C 0.5 0.30646 0.833333
C 0.5 0.229043 0.166667
C 0.5 0.267751 0.333333
C 0.5 0.345168 0.666667
C 0.5 0.383876 0.833333
C 0.5 0.30646 0.166667
C 0.5 0.345168 0.333333
C 0.5 0.422584 0.666667
C 0.5 0.461292 0.833333
C 0.5 0.383876 0.166667
C 0.5 0.422584 0.333333
C 0.5 0.5 0.666667
C 0.5 0.538708 0.833333
C 0.5 0.461292 0.166667
C 0.5 0.5 0.333333
C 0.5 0.577416 0.666667
C 0.5 0.616124 0.833333
C 0.5 0.538708 0.166667
C 0.5 0.577416 0.333333
C 0.5 0.654832 0.666667
C 0.5 0.69354 0.833333
C 0.5 0.616124 0.166667
C 0.5 0.654832 0.333333
C 0.5 0.732249 0.666667
C 0.5 0.770957 0.833333
C 0.5 0.69354 0.166667
C 0.5 0.732249 0.333333
C 0.5 0.809665 0.666667
C 0.5 0.770957 0.166667
C 0.5 0.809665 0.333333
H 0.5 0.160623 0.794601
H 0.5 0.160623 0.205399
H 0.5 0.839377 0.794601
H 0.5 0.839377 0.205399
