data_global
_cell_length_a 10
_cell_length_b 30
_cell_length_c 17.04
_cell_angle_alpha 90
_cell_angle_beta 90
_cell_angle_gamma 90
_symmetry_space_group_name_H-M 'P -1'
loop_
_symmetry_equiv_pos_as_xyz
  'x,y,z'
loop_
_atom_site_label
_atom_site_fract_x
_atom_site_fract_y
_atom_site_fract_z
C 0.499999 0.254053 0.915528
C 0.499999 0.294392 0.95815
C 0.5 0.254053 0.084471
C 0.499999 0.335387 0.91688
C 0.499999 0.376666 0.958474
C 0.499999 0.294392 0.0418496
C 0.5 0.335386 0.08312
C 0.499999 0.417753 0.916742
C 0.499999 0.458899 0.958293
C 0.499999 0.376666 0.0415264
C 0.499999 0.417753 0.083258
C 0.499999 0.500001 0.916865
C 0.499999 0.541104 0.958293
C 0.499999 0.458899 0.0417072
C 0.499999 0.500001 0.0831347
C 0.499999 0.58225 0.916742
C 0.499999 0.623337 0.958474
C 0.499999 0.541104 0.0417072
C 0.499999 0.58225 0.083258
C 0.499999 0.664616 0.91688
C 0.499999 0.705611 0.95815
C 0.499999 0.623337 0.0415265
C 0.5 0.664617 0.0831201
C 0.499999 0.74595 0.915528
C 0.5 0.705611 0.0418499
C 0.5 0.74595 0.0844711
H 0.5 0.222244 0.945978
H 0.499999 0.222244 0.054021
H 0.5 0.777759 0.945978
H 0.5 0.777759 0.0540219
C 0.5 0.25388 0.164518
C 0.5 0.294017 0.207678
C 0.5 0.335214 0.166573
C 0.499999 0.376388 0.20814
C 0.499999 0.417628 0.166536
C 0.499998 0.458792 0.20798
C 0.499998 0.500001 0.166642
C 0.499998 0.54121 0.20798
C 0.499998 0.582374 0.166536
C 0.499999 0.623615 0.208141
C 0.5 0.664788 0.166573
C 0.500001 0.705985 0.207678
C 0.500001 0.746122 0.164519
C 0.500001 0.253358 0.414736
C 0.500001 0.293387 0.45787
C 0.500001 0.253504 0.33435
C 0.500001 0.334413 0.416435
C 0.500001 0.375806 0.457635
C 0.500001 0.293694 0.29149
C 0.500001 0.33479 0.332968
C 0.5 0.415312 0.41506
C 0.5 0.37608 0.291235
C 0.499999 0.417006 0.333478
C 0.499998 0.459052 0.291488
C 0.499998 0.500001 0.330233
C 0.499998 0.58469 0.415059
C 0.5 0.624196 0.457636
C 0.499997 0.54095 0.291488
C 0.499998 0.582996 0.333478
C 0.500001 0.665589 0.416435
C 0.500002 0.706615 0.45787
C 0.5 0.623922 0.291235
C 0.500001 0.665212 0.332968
C 0.500003 0.746644 0.414736
C 0.500002 0.706308 0.29149
C 0.500003 0.746498 0.334351
C 0.499998 0.253504 0.665651
C 0.499998 0.293695 0.70851
C 0.499999 0.253358 0.585264
C 0.499998 0.33479 0.667031
C 0.499998 0.37608 0.708765
C 0.5 0.293387 0.54213
C 0.499999 0.334413 0.583565
C 0.499999 0.417007 0.666521
C 0.499998 0.459052 0.708512
C 0.5 0.375806 0.542364
C 0.5 0.415312 0.58494
C 0.499998 0.500001 0.669766
C 0.499999 0.54095 0.708512
C 0.499999 0.582996 0.666522
C 0.499999 0.623922 0.708765
C 0.499999 0.58469 0.58494
C 0.5 0.665212 0.667032
C 0.499999 0.706308 0.70851
C 0.5 0.624196 0.542364
C 0.5 0.665589 0.583565
C 0.499999 0.746498 0.66565
C 0.500001 0.706615 0.54213
C 0.5 0.746644 0.585264
C 0.499999 0.253881 0.835482
C 0.499998 0.294017 0.792322
C 0.499998 0.335215 0.833427
C 0.499998 0.376388 0.791859
C 0.499998 0.417628 0.833464
C 0.499998 0.458792 0.79202
C 0.499999 0.500001 0.833358
C 0.499999 0.54121 0.79202
C 0.499999 0.582374 0.833464
C 0.499999 0.623615 0.791859
C 0.499999 0.664788 0.833427
C 0.499999 0.705985 0.792322
C 0.499999 0.746122 0.835482
H 0.499999 0.221931 0.805454
H 0.5 0.778072 0.805454
H 0.5 0.446531 0.447055
H 0.499998 0.500001 0.393891
H 0.499996 0.553471 0.447055
H 0.500001 0.446532 0.552945
H 0.499999 0.500001 0.606108
H 0.499999 0.553471 0.552945
H 0.5 0.221931 0.194545
H 0.500002 0.778072 0.194546
H 0.500001 0.221413 0.444847
H 0.500001 0.221638 0.303997
H 0.500002 0.778589 0.444848
H 0.500003 0.778364 0.303999
H 0.499998 0.221639 0.696003
H 0.499999 0.221413 0.555154
H 0.499997 0.778364 0.696002
H 0.499999 0.778589 0.555153
