data_global
_cell_length_a 10
_cell_length_b 30
_cell_length_c 17.04
_cell_angle_alpha 90
_cell_angle_beta 90
_cell_angle_gamma 90
_symmetry_space_group_name_H-M 'P -1'
loop_
_symmetry_equiv_pos_as_xyz
  'x,y,z'
loop_
_atom_site_label
_atom_site_fract_x
_atom_site_fract_y
_atom_site_fract_z
C 0.5 0.251413 0.420621
C 0.5 0.249815 0.659228
C 0.5 0.292757 0.45807
C 0.5 0.289111 0.700506
C 0.5 0.249815 0.340772
C 0.5 0.251413 0.579378
C 0.5 0.338799 0.1591
C 0.5 0.333784 0.416267
C 0.5 0.332533 0.667335
C 0.5 0.339227 0.91965
C 0.5 0.37702 0.207107
C 0.5 0.375405 0.45822
C 0.5 0.375003 0.709287
C 0.5 0.379638 0.958976
C 0.5 0.289111 0.299494
C 0.5 0.292757 0.54193
C 0.5 0.339227 0.0803587
C 0.5 0.332533 0.332665
C 0.5 0.333784 0.583733
C 0.5 0.338798 0.840891
C 0.5 0.418525 0.167279
C 0.5 0.416658 0.416826
C 0.5 0.41625 0.66715
C 0.5 0.419315 0.915957
C 0.5 0.459174 0.209404
C 0.5 0.458295 0.458239
C 0.5 0.458487 0.707537
C 0.5 0.459757 0.958324
C 0.5 0.379637 0.0410219
C 0.5 0.375004 0.290713
C 0.5 0.375405 0.54178
C 0.5 0.37702 0.792895
C 0.5 0.419316 0.084046
C 0.5 0.41625 0.33285
C 0.5 0.416658 0.583174
C 0.5 0.418525 0.832719
C 0.5 0.5 0.167581
C 0.5 0.5 0.417288
C 0.5 0.5 0.666012
C 0.5 0.5 0.916044
C 0.5 0.540826 0.209404
C 0.5 0.541705 0.458239
C 0.5 0.541513 0.707537
C 0.5 0.540243 0.958324
C 0.5 0.459757 0.0416757
C 0.5 0.458487 0.292463
C 0.5 0.458295 0.541761
C 0.5 0.459174 0.790597
C 0.5 0.5 0.0839573
C 0.5 0.5 0.333988
C 0.5 0.5 0.582712
C 0.5 0.5 0.832418
C 0.5 0.581475 0.167279
C 0.5 0.583342 0.416826
C 0.5 0.58375 0.667151
C 0.5 0.580685 0.915956
C 0.5 0.62298 0.207107
C 0.5 0.624595 0.45822
C 0.5 0.624997 0.709287
C 0.5 0.620362 0.958976
C 0.5 0.540243 0.0416758
C 0.5 0.541513 0.292463
C 0.5 0.541705 0.541761
C 0.5 0.540826 0.790597
C 0.5 0.580685 0.0840458
C 0.5 0.58375 0.33285
C 0.5 0.583342 0.583174
C 0.5 0.581475 0.832719
C 0.5 0.661201 0.159101
C 0.5 0.666216 0.416267
C 0.5 0.667467 0.667335
C 0.5 0.660773 0.919649
C 0.5 0.707243 0.45807
C 0.5 0.710889 0.700506
C 0.5 0.620363 0.0410221
C 0.5 0.624996 0.290713
C 0.5 0.624595 0.54178
C 0.5 0.62298 0.792894
C 0.5 0.660773 0.0803576
C 0.5 0.667467 0.332665
C 0.5 0.666216 0.583733
C 0.5 0.661202 0.840892
C 0.5 0.748587 0.420621
C 0.5 0.750185 0.659228
C 0.5 0.710889 0.299494
C 0.5 0.707243 0.54193
C 0.5 0.750185 0.340772
C 0.5 0.748587 0.579378
H 0.5 0.220285 0.452509
H 0.5 0.218247 0.690891
H 0.5 0.218247 0.309109
H 0.5 0.220285 0.547491
H 0.5 0.779715 0.452509
H 0.5 0.781753 0.690891
H 0.5 0.781753 0.309109
H 0.5 0.779715 0.547491
H 0.500001 0.281327 0.761101
H 0.5 0.306037 0.180841
H 0.5 0.307406 0.949654
H 0.5 0.281327 0.238899
H 0.5 0.307405 0.050345
H 0.499999 0.306038 0.81916
H 0.499999 0.693963 0.180841
H 0.5 0.692594 0.949655
H 0.5 0.718673 0.761101
H 0.5 0.692595 0.0503451
H 0.5 0.693962 0.81916
H 0.500001 0.718673 0.238899
