data_global
_cell_length_a 10
_cell_length_b 29.31
_cell_length_c 4.26
_cell_angle_alpha 90
_cell_angle_beta 90
_cell_angle_gamma 90
_symmetry_space_group_name_H-M 'P -1'
loop_
_symmetry_equiv_pos_as_xyz
  'x,y,z'
loop_
_atom_site_label
_atom_site_fract_x
_atom_site_fract_y
_atom_site_fract_z
C 0.5 0.207509 0.658654
C 0.5 0.247564 0.833995
C 0.5 0.207509 0.341346
C 0.5 0.289505 0.666255
C 0.5 0.331711 0.833595
C 0.5 0.247564 0.166006
C 0.5 0.289505 0.333745
C 0.5 0.3737 0.66729
C 0.5 0.415737 0.833364
C 0.5 0.331711 0.166405
C 0.5 0.3737 0.33271
C 0.5 0.457934 0.666642
C 0.5 0.499999 0.832797
C 0.5 0.415737 0.166636
C 0.5 0.457934 0.333358
C 0.5 0.542065 0.666642
C 0.5 0.584262 0.833364
C 0.5 0.499999 0.167203
C 0.5 0.542065 0.333358
C 0.5 0.6263 0.667291
C 0.5 0.668289 0.833595
C 0.5 0.584262 0.166636
C 0.5 0.6263 0.332709
C 0.5 0.710495 0.666256
C 0.5 0.752436 0.833993
C 0.5 0.668289 0.166405
C 0.5 0.710495 0.333743
C 0.5 0.792492 0.658659
C 0.5 0.752436 0.166006
C 0.5 0.792492 0.341341
F 0.5 0.164411 0.758503
F 0.499999 0.164411 0.241498
F 0.5 0.83559 0.758502
F 0.5 0.83559 0.241499
