data_global
_cell_length_a 10
_cell_length_b 30
_cell_length_c 17.04
_cell_angle_alpha 90
_cell_angle_beta 90
_cell_angle_gamma 90
_symmetry_space_group_name_H-M 'P -1'
loop_
_symmetry_equiv_pos_as_xyz
  'x,y,z'
loop_
_atom_site_label
_atom_site_fract_x
_atom_site_fract_y
_atom_site_fract_z
C 0.5 0.253553 0.413741
C 0.5 0.253799 0.666189
C 0.5 0.295452 0.209306
C 0.5 0.293933 0.458302
C 0.5 0.29461 0.709186
C 0.5 0.253799 0.333805
C 0.5 0.253554 0.586265
C 0.5 0.33582 0.167469
C 0.5 0.335325 0.416852
C 0.5 0.335755 0.666383
C 0.5 0.336662 0.914891
C 0.5 0.377112 0.209146
C 0.5 0.376575 0.458462
C 0.5 0.376853 0.707788
C 0.5 0.376047 0.957318
C 0.5 0.29461 0.290816
C 0.5 0.293933 0.541697
C 0.5 0.295452 0.790693
C 0.5 0.336662 0.0851094
C 0.5 0.335755 0.333615
C 0.5 0.335326 0.583149
C 0.5 0.335819 0.83253
C 0.5 0.417884 0.166954
C 0.5 0.417759 0.416847
C 0.5 0.417945 0.666184
C 0.5 0.417738 0.916364
C 0.5 0.459043 0.208688
C 0.5 0.458901 0.458461
C 0.5 0.458969 0.708054
C 0.5 0.458825 0.958172
C 0.5 0.376047 0.0426819
C 0.5 0.376853 0.292213
C 0.5 0.376575 0.541538
C 0.5 0.377112 0.790854
C 0.5 0.417738 0.0836364
C 0.5 0.417945 0.333816
C 0.5 0.417759 0.583154
C 0.5 0.417884 0.833045
C 0.5 0.5 0.166985
C 0.5 0.5 0.41685
C 0.5 0.5 0.66637
C 0.5 0.5 0.916677
C 0.5 0.540957 0.208688
C 0.5 0.541099 0.458461
C 0.5 0.541031 0.708054
C 0.5 0.541175 0.958172
C 0.5 0.458825 0.0418272
C 0.5 0.458969 0.291947
C 0.5 0.458901 0.541539
C 0.5 0.459044 0.791312
C 0.5 0.5 0.0833233
C 0.5 0.5 0.33363
C 0.5 0.5 0.583151
C 0.5 0.5 0.833015
C 0.5 0.582116 0.166954
C 0.5 0.582241 0.416847
C 0.5 0.582055 0.666184
C 0.5 0.582262 0.916364
C 0.5 0.622888 0.209146
C 0.5 0.623425 0.458462
C 0.5 0.623147 0.707788
C 0.5 0.623953 0.957318
C 0.5 0.541175 0.0418272
C 0.5 0.541031 0.291947
C 0.5 0.541099 0.541539
C 0.5 0.540956 0.791312
C 0.5 0.582262 0.0836364
C 0.5 0.582055 0.333816
C 0.5 0.582241 0.583154
C 0.5 0.582116 0.833045
C 0.5 0.66418 0.167469
C 0.5 0.664675 0.416852
C 0.5 0.664244 0.666383
C 0.5 0.663338 0.914891
C 0.5 0.704548 0.209306
C 0.5 0.706067 0.458302
C 0.5 0.70539 0.709186
C 0.5 0.623953 0.0426819
C 0.5 0.623147 0.292213
C 0.5 0.623425 0.541538
C 0.5 0.622888 0.790854
C 0.5 0.663338 0.0851094
C 0.5 0.664245 0.333615
C 0.5 0.664674 0.583149
C 0.5 0.664181 0.83253
C 0.5 0.746447 0.413741
C 0.5 0.746201 0.666189
C 0.5 0.70539 0.290816
C 0.5 0.706067 0.541697
C 0.5 0.704548 0.790693
C 0.5 0.746201 0.333806
C 0.5 0.746446 0.586264
H 0.5 0.221623 0.44401
H 0.5 0.222467 0.698714
H 0.5 0.222468 0.301287
H 0.5 0.221622 0.555989
H 0.5 0.778377 0.44401
H 0.5 0.777533 0.698714
H 0.5 0.777532 0.301287
H 0.5 0.778378 0.555989
H 0.5 0.264093 0.176794
H 0.5 0.304589 0.944745
H 0.5 0.264093 0.823206
H 0.5 0.304589 0.0552545
H 0.5 0.695411 0.944745
H 0.5 0.735907 0.176794
H 0.5 0.695411 0.0552545
H 0.5 0.735907 0.823206
