data_global
_cell_length_a 10
_cell_length_b 21.0678
_cell_length_c 17.04
_cell_angle_alpha 90
_cell_angle_beta 90
_cell_angle_gamma 90
_symmetry_space_group_name_H-M 'P -1'
loop_
_symmetry_equiv_pos_as_xyz
  'x,y,z'
loop_
_atom_site_label
_atom_site_fract_x
_atom_site_fract_y
_atom_site_fract_z
C 0.5 0.233047 0.162873
C 0.5 0.233792 0.414527
C 0.5 0.236193 0.663923
C 0.5 0.234829 0.912441
C 0.5 0.290159 0.206426
C 0.5 0.291491 0.457068
C 0.5 0.293737 0.706321
C 0.5 0.291823 0.955862
C 0.5 0.23347 0.0826452
C 0.5 0.233105 0.334301
C 0.5 0.235893 0.583981
C 0.5 0.235594 0.832323
C 0.5 0.34859 0.165
C 0.5 0.349319 0.415427
C 0.5 0.352151 0.665288
C 0.5 0.350554 0.914944
C 0.5 0.407117 0.206731
C 0.5 0.408229 0.457176
C 0.5 0.411292 0.70683
C 0.5 0.408959 0.956918
C 0.5 0.291021 0.0398412
C 0.5 0.290113 0.290544
C 0.5 0.293016 0.540915
C 0.5 0.293224 0.790117
C 0.5 0.34916 0.0814082
C 0.5 0.348562 0.33177
C 0.5 0.35192 0.581885
C 0.5 0.351479 0.831476
C 0.5 0.465576 0.164554
C 0.5 0.465802 0.414915
C 0.5 0.470016 0.665564
C 0.5 0.467912 0.915797
C 0.5 0.523579 0.20562
C 0.5 0.524626 0.455909
C 0.5 0.528687 0.70783
C 0.5 0.525947 0.957892
C 0.5 0.408093 0.0397591
C 0.5 0.406843 0.289649
C 0.5 0.41059 0.540123
C 0.5 0.410525 0.790089
C 0.5 0.466354 0.0815462
C 0.5 0.465213 0.33135
C 0.5 0.470497 0.581489
C 0.5 0.4688 0.832321
C 0.5 0.582978 0.165704
C 0.5 0.578222 0.408907
C 0.5 0.587675 0.667608
C 0.5 0.584881 0.917299
C 0.5 0.641805 0.208002
C 0.5 0.646447 0.71099
C 0.5 0.643304 0.959929
C 0.5 0.525235 0.0411618
C 0.5 0.522501 0.28812
C 0.5 0.528914 0.540045
C 0.5 0.527653 0.791632
C 0.5 0.583512 0.0834176
C 0.5 0.580179 0.32921
C 0.5 0.589493 0.58321
C 0.5 0.585679 0.834448
C 0.5 0.701046 0.168544
C 0.5 0.70682 0.674005
C 0.5 0.702076 0.920185
C 0.5 0.757819 0.211718
C 0.5 0.763167 0.717155
C 0.5 0.759125 0.963137
C 0.5 0.642908 0.0429953
C 0.5 0.641259 0.290614
C 0.5 0.650567 0.551143
C 0.5 0.645093 0.794208
C 0.5 0.701041 0.0845287
C 0.5 0.698814 0.331572
C 0.5 0.7095 0.590194
C 0.5 0.70304 0.836591
C 0.5 0.758609 0.0430602
C 0.5 0.756662 0.292741
C 0.5 0.764726 0.546481
C 0.5 0.761547 0.797028
H 0.5 0.187484 0.192855
H 0.5 0.188612 0.445281
H 0.5 0.190949 0.694461
H 0.5 0.189186 0.942178
H 0.5 0.188196 0.0520168
H 0.5 0.187448 0.304553
H 0.5 0.190486 0.553784
H 0.5 0.190471 0.801489
H 0.5 0.803446 0.182019
H 0.5 0.808584 0.686849
H 0.5 0.804699 0.933527
H 0.5 0.803617 0.0741083
H 0.5 0.800911 0.32592
H 0.5 0.811978 0.571971
H 0.5 0.806025 0.829112
H 0.5 0.623376 0.434457
H 0.500001 0.660992 0.490292
H 0.5 0.70001 0.395131
H 0.5 0.762506 0.482714
