data_global
_cell_length_a 10
_cell_length_b 30
_cell_length_c 17.04
_cell_angle_alpha 90
_cell_angle_beta 90
_cell_angle_gamma 90
_symmetry_space_group_name_H-M 'P -1'
loop_
_symmetry_equiv_pos_as_xyz
  'x,y,z'
loop_
_atom_site_label
_atom_site_fract_x
_atom_site_fract_y
_atom_site_fract_z
C 0.5 0.217874 0.412319
C 0.5 0.217874 0.662319
C 0.5 0.258866 0.453985
C 0.5 0.258866 0.703985
C 0.5 0.217874 0.328985
C 0.5 0.217874 0.578985
C 0.5 0.299858 0.412319
C 0.5 0.299858 0.662319
C 0.5 0.34085 0.453985
C 0.5 0.34085 0.703985
C 0.5 0.258866 0.287319
C 0.5 0.258866 0.537319
C 0.5 0.299858 0.328985
C 0.5 0.299858 0.578985
C 0.5 0.381841 0.162319
C 0.5 0.381841 0.412319
C 0.5 0.381841 0.662319
C 0.5 0.381841 0.912319
C 0.5 0.422833 0.203985
C 0.5 0.422833 0.453985
C 0.5 0.422833 0.703985
C 0.5 0.422833 0.953985
C 0.5 0.34085 0.287319
C 0.5 0.34085 0.537319
C 0.5 0.381841 0.0789853
C 0.5 0.381841 0.328985
C 0.5 0.381841 0.578985
C 0.5 0.381841 0.828985
C 0.5 0.463825 0.162319
C 0.5 0.463825 0.412319
C 0.5 0.463825 0.662319
C 0.5 0.463825 0.912319
C 0.5 0.504817 0.203985
C 0.5 0.504817 0.453985
C 0.5 0.504817 0.703985
C 0.5 0.504817 0.953985
C 0.5 0.422833 0.0373186
C 0.5 0.422833 0.287319
C 0.5 0.422833 0.537319
C 0.5 0.422833 0.787319
C 0.5 0.463825 0.0789853
C 0.5 0.463825 0.328985
C 0.5 0.463825 0.578985
C 0.5 0.463825 0.828985
C 0.5 0.545809 0.162319
C 0.5 0.545809 0.412319
C 0.5 0.545809 0.662319
C 0.5 0.545809 0.912319
C 0.5 0.586801 0.203985
C 0.5 0.586801 0.453985
C 0.5 0.586801 0.703985
C 0.5 0.586801 0.953985
C 0.5 0.504817 0.0373186
C 0.5 0.504817 0.287319
C 0.5 0.504817 0.537319
C 0.5 0.504817 0.787319
C 0.5 0.545809 0.0789853
C 0.5 0.545809 0.328985
C 0.5 0.545809 0.578985
C 0.5 0.545809 0.828985
C 0.5 0.627793 0.162319
C 0.5 0.627793 0.412319
C 0.5 0.627793 0.662319
C 0.5 0.627793 0.912319
C 0.5 0.668785 0.453985
C 0.5 0.668785 0.703985
C 0.5 0.586801 0.0373186
C 0.5 0.586801 0.287319
C 0.5 0.586801 0.537319
C 0.5 0.586801 0.787319
C 0.5 0.627793 0.0789853
C 0.5 0.627793 0.328985
C 0.5 0.627793 0.578985
C 0.5 0.627793 0.828985
C 0.5 0.709776 0.412319
C 0.5 0.709776 0.662319
C 0.5 0.750768 0.453985
C 0.5 0.750768 0.703985
C 0.5 0.668785 0.287319
C 0.5 0.668785 0.537319
C 0.5 0.709776 0.328985
C 0.5 0.709776 0.578985
C 0.5 0.79176 0.412319
C 0.5 0.79176 0.662319
C 0.5 0.750768 0.287319
C 0.5 0.750768 0.537319
C 0.5 0.79176 0.328985
C 0.5 0.79176 0.578985
H 0.5 0.186408 0.444302
H 0.5 0.186408 0.694302
H 0.5 0.258866 0.767952
H 0.5 0.186408 0.297002
H 0.5 0.186408 0.547002
H 0.5 0.34085 0.767952
H 0.5 0.258866 0.223351
H 0.5 0.350376 0.194302
H 0.5 0.350376 0.944302
H 0.5 0.34085 0.223351
H 0.5 0.350376 0.0470017
H 0.5 0.350376 0.797002
H 0.5 0.659258 0.194302
H 0.5 0.659258 0.944302
H 0.5 0.668785 0.767952
H 0.5 0.659258 0.0470017
H 0.5 0.659258 0.797002
H 0.5 0.750768 0.767952
H 0.5 0.668785 0.223351
H 0.5 0.823226 0.444302
H 0.5 0.823226 0.694302
H 0.5 0.750768 0.223351
H 0.5 0.823226 0.297002
H 0.5 0.823226 0.547002
