data_global
_cell_length_a 10
_cell_length_b 21.93
_cell_length_c 4.26
_cell_angle_alpha 90
_cell_angle_beta 90
_cell_angle_gamma 90
_symmetry_space_group_name_H-M 'P -1'
loop_
_symmetry_equiv_pos_as_xyz
  'x,y,z'
loop_
_atom_site_label
_atom_site_fract_x
_atom_site_fract_y
_atom_site_fract_z
C 0.5 0.276437 0.660565
C 0.499999 0.331374 0.831632
C 0.5 0.276437 0.339434
C 0.499999 0.387443 0.666836
C 0.5 0.443969 0.833661
C 0.499999 0.331374 0.168367
C 0.499999 0.387443 0.333163
C 0.5 0.5 0.667643
C 0.5 0.556031 0.833661
C 0.5 0.443969 0.166339
C 0.5 0.5 0.332357
C 0.5 0.612557 0.666838
C 0.5 0.668626 0.831632
C 0.5 0.556031 0.16634
C 0.5 0.612557 0.333163
C 0.5 0.723563 0.660569
C 0.5 0.668626 0.168369
C 0.5 0.723563 0.339431
H 0.500001 0.232843 0.781846
H 0.5 0.232843 0.218154
H 0.5 0.767158 0.781847
H 0.500001 0.767158 0.218153
