data_global
_cell_length_a 10
_cell_length_b 30
_cell_length_c 17.04
_cell_angle_alpha 90
_cell_angle_beta 90
_cell_angle_gamma 90
_symmetry_space_group_name_H-M 'P -1'
loop_
_symmetry_equiv_pos_as_xyz
  'x,y,z'
loop_
_atom_site_label
_atom_site_fract_x
_atom_site_fract_y
_atom_site_fract_z
C 0.5 0.292932 0.420802
C 0.5 0.291291 0.659004
C 0.5 0.334308 0.458094
C 0.5 0.330579 0.700148
C 0.5 0.291291 0.340997
C 0.5 0.292932 0.579197
C 0.5 0.37961 0.15939
C 0.5 0.375338 0.416404
C 0.5 0.374022 0.667035
C 0.5 0.379759 0.919366
C 0.5 0.417964 0.207239
C 0.5 0.417077 0.458158
C 0.5 0.416445 0.709061
C 0.5 0.420086 0.95898
C 0.5 0.330579 0.299852
C 0.5 0.334308 0.541906
C 0.5 0.379759 0.0806267
C 0.5 0.374021 0.332965
C 0.5 0.375338 0.583595
C 0.5 0.379611 0.840618
C 0.5 0.459266 0.167323
C 0.5 0.458229 0.416909
C 0.5 0.457788 0.667216
C 0.5 0.459727 0.916016
C 0.5 0.5 0.209426
C 0.5 0.5 0.458201
C 0.5 0.5 0.707891
C 0.5 0.5 0.958476
C 0.5 0.420086 0.0410223
C 0.5 0.416444 0.290938
C 0.5 0.417077 0.541842
C 0.5 0.417964 0.79276
C 0.5 0.459727 0.0839814
C 0.5 0.457788 0.332784
C 0.5 0.458229 0.583091
C 0.5 0.459266 0.832679
C 0.5 0.540734 0.167323
C 0.5 0.541771 0.416909
C 0.5 0.542213 0.667216
C 0.5 0.540273 0.916016
C 0.5 0.582036 0.207239
C 0.5 0.582923 0.458158
C 0.5 0.583555 0.709061
C 0.5 0.579914 0.95898
C 0.5 0.5 0.0415249
C 0.5 0.5 0.292109
C 0.5 0.5 0.541799
C 0.5 0.5 0.790573
C 0.5 0.540273 0.0839816
C 0.5 0.542212 0.332784
C 0.5 0.541771 0.583091
C 0.5 0.540733 0.832679
C 0.5 0.620389 0.159389
C 0.5 0.624662 0.416404
C 0.5 0.625978 0.667035
C 0.5 0.620241 0.919365
C 0.5 0.665692 0.458094
C 0.5 0.669421 0.700148
C 0.5 0.579914 0.0410222
C 0.5 0.583556 0.290939
C 0.5 0.582923 0.541842
C 0.5 0.582036 0.79276
C 0.5 0.620241 0.0806277
C 0.5 0.625978 0.332965
C 0.5 0.624662 0.583595
C 0.5 0.620388 0.840619
C 0.5 0.707068 0.420802
C 0.5 0.708709 0.659004
C 0.5 0.669421 0.299852
C 0.5 0.665692 0.541906
C 0.5 0.708709 0.340997
C 0.5 0.707068 0.579197
H 0.5 0.261825 0.452693
H 0.5 0.259729 0.690706
H 0.5 0.259729 0.309294
H 0.5 0.261825 0.547307
H 0.5 0.738175 0.452693
H 0.5 0.740271 0.690706
H 0.5 0.740271 0.309294
H 0.5 0.738175 0.547307
H 0.5 0.322696 0.760634
H 0.5 0.346883 0.181156
H 0.5 0.347857 0.949124
H 0.5 0.322696 0.239366
H 0.5 0.347858 0.050877
H 0.5 0.346883 0.818844
H 0.499999 0.653117 0.181156
H 0.5 0.652143 0.949124
H 0.5 0.677304 0.760634
H 0.5 0.652142 0.0508769
H 0.5 0.653118 0.818844
H 0.500001 0.677304 0.239366
