data_global
_cell_length_a 10
_cell_length_b 21.0678
_cell_length_c 17.04
_cell_angle_alpha 90
_cell_angle_beta 90
_cell_angle_gamma 90
_symmetry_space_group_name_H-M 'P -1'
loop_
_symmetry_equiv_pos_as_xyz
  'x,y,z'
loop_
_atom_site_label
_atom_site_fract_x
_atom_site_fract_y
_atom_site_fract_z
C 0.5 0.237739 0.166716
C 0.5 0.238346 0.416038
C 0.5 0.237122 0.665548
C 0.5 0.236808 0.916259
C 0.5 0.295201 0.209326
C 0.5 0.295617 0.458863
C 0.5 0.294228 0.708837
C 0.5 0.294134 0.959266
C 0.5 0.237352 0.0865513
C 0.5 0.238321 0.335962
C 0.5 0.23756 0.585373
C 0.5 0.236754 0.836033
C 0.5 0.353513 0.168002
C 0.5 0.354229 0.417763
C 0.5 0.35274 0.667582
C 0.5 0.352444 0.917815
C 0.5 0.412341 0.20966
C 0.5 0.4131 0.459371
C 0.5 0.411273 0.709366
C 0.5 0.411178 0.959567
C 0.5 0.294477 0.0432954
C 0.5 0.295627 0.29321
C 0.5 0.295079 0.542761
C 0.5 0.294024 0.792901
C 0.5 0.352987 0.0844563
C 0.5 0.3541 0.334383
C 0.5 0.353275 0.584081
C 0.5 0.35234 0.834233
C 0.5 0.470712 0.167857
C 0.5 0.472079 0.417831
C 0.5 0.469777 0.667599
C 0.5 0.469515 0.917686
C 0.5 0.529301 0.209064
C 0.5 0.530797 0.459173
C 0.5 0.52768 0.709315
C 0.5 0.527804 0.959153
C 0.5 0.411539 0.0426305
C 0.5 0.412957 0.292798
C 0.5 0.412276 0.542381
C 0.5 0.411057 0.792414
C 0.5 0.470091 0.084334
C 0.5 0.471584 0.334317
C 0.5 0.470487 0.584037
C 0.5 0.469355 0.834216
C 0.5 0.587334 0.166689
C 0.5 0.590767 0.41788
C 0.5 0.586284 0.667773
C 0.5 0.586117 0.917326
C 0.5 0.646262 0.207629
C 0.5 0.649709 0.459316
C 0.5 0.643676 0.710906
C 0.5 0.645006 0.958088
C 0.5 0.528198 0.0425019
C 0.5 0.530306 0.292874
C 0.5 0.529228 0.542544
C 0.5 0.527652 0.792654
C 0.5 0.586824 0.0836469
C 0.5 0.589036 0.33399
C 0.5 0.587234 0.584525
C 0.5 0.58588 0.83474
C 0.5 0.703797 0.164824
C 0.5 0.710685 0.416667
C 0.5 0.701834 0.670008
C 0.5 0.703493 0.916743
C 0.5 0.761397 0.205605
C 0.5 0.772195 0.444424
C 0.5 0.760557 0.710698
C 0.5 0.761083 0.959066
C 0.5 0.645191 0.0411859
C 0.5 0.647511 0.291263
C 0.5 0.646647 0.543458
C 0.5 0.644464 0.793529
C 0.5 0.703628 0.0814296
C 0.5 0.7065 0.330714
C 0.5 0.701198 0.589217
C 0.5 0.703408 0.833488
C 0.5 0.761111 0.0388964
C 0.5 0.762308 0.285299
C 0.5 0.761181 0.790365
H 0.5 0.192484 0.1973
H 0.5 0.192996 0.446379
H 0.5 0.191574 0.695517
H 0.5 0.19142 0.946575
H 0.5 0.19184 0.0565276
H 0.5 0.192954 0.305648
H 0.5 0.192311 0.554754
H 0.5 0.191347 0.805737
H 0.5 0.806463 0.17477
H 0.5 0.811174 0.403368
H 0.5 0.804637 0.677113
H 0.5 0.806319 0.928511
H 0.5 0.806449 0.0691668
H 0.5 0.808929 0.311813
H 0.5 0.806466 0.820809
H 0.499999 0.790605 0.503031
H 0.500001 0.747042 0.563329
