data_global
_cell_length_a 10
_cell_length_b 23.16
_cell_length_c 4.26
_cell_angle_alpha 90
_cell_angle_beta 90
_cell_angle_gamma 90
_symmetry_space_group_name_H-M 'P -1'
loop_
_symmetry_equiv_pos_as_xyz
  'x,y,z'
loop_
_atom_site_label
_atom_site_fract_x
_atom_site_fract_y
_atom_site_fract_z
C 0.5 0.263121 0.658383
C 0.5 0.313874 0.834284
C 0.5 0.263121 0.341618
C 0.5 0.366905 0.666379
C 0.5 0.420239 0.833914
C 0.5 0.313874 0.165716
C 0.5 0.366905 0.33362
C 0.5 0.473453 0.666958
C 0.5 0.526552 0.83304
C 0.5 0.420239 0.166086
C 0.5 0.473453 0.333041
C 0.5 0.579763 0.666079
C 0.5 0.633096 0.833634
C 0.5 0.526552 0.16696
C 0.5 0.579763 0.333921
C 0.5 0.686124 0.665699
C 0.5 0.736877 0.841631
C 0.5 0.633096 0.166366
C 0.5 0.686124 0.334301
C 0.5 0.736877 0.158369
F 0.5 0.208615 0.75861
F 0.5 0.208615 0.241391
F 0.5 0.791381 0.74139
F 0.5 0.791381 0.25861
