data_AGNR_OH_19
_audit_creation_method                 'DeviceStudio'
_symmetry_space_group_name_H-M         'P1'
_symmetry_Int_Tables_number            1
_symmetry_cell_setting                 Orthorhombic
loop_
_symmetry_equiv_pos_as_xyz
x,y,z
_cell_length_a                         10
_cell_length_b                         34.23
_cell_length_c                         4.26
_cell_angle_alpha                      90
_cell_angle_beta                       90
_cell_angle_gamma                      90
loop_
_atom_site_label
_atom_site_type_symbol
_atom_site_fract_x
_atom_site_fract_y
_atom_site_fract_z
C	C	0.5	0.176664	0.666667
C	C	0.5	0.21259	0.833333
C	C	0.5	0.176664	0.333333
C	C	0.5	0.248516	0.666667
C	C	0.5	0.284442	0.833333
C	C	0.5	0.21259	0.166667
C	C	0.5	0.248516	0.333333
C	C	0.5	0.320369	0.666667
C	C	0.5	0.356295	0.833333
C	C	0.5	0.284442	0.166667
C	C	0.5	0.320369	0.333333
C	C	0.5	0.392221	0.666667
C	C	0.5	0.428147	0.833333
C	C	0.5	0.356295	0.166667
C	C	0.5	0.392221	0.333333
C	C	0.5	0.464074	0.666667
C	C	0.5	0.5	0.833333
C	C	0.5	0.428147	0.166667
C	C	0.5	0.464074	0.333333
C	C	0.5	0.535926	0.666667
C	C	0.5	0.571853	0.833333
C	C	0.5	0.5	0.166667
C	C	0.5	0.535926	0.333333
C	C	0.5	0.607779	0.666667
C	C	0.5	0.643705	0.833333
C	C	0.5	0.571853	0.166667
C	C	0.5	0.607779	0.333333
C	C	0.5	0.679631	0.666667
C	C	0.5	0.715558	0.833333
C	C	0.5	0.643705	0.166667
C	C	0.5	0.679631	0.333333
C	C	0.5	0.751484	0.666667
C	C	0.5	0.78741	0.833333
C	C	0.5	0.715558	0.166667
C	C	0.5	0.751484	0.333333
C	C	0.5	0.823336	0.666667
C	C	0.5	0.78741	0.166667
C	C	0.5	0.823336	0.333333
O	O	0.44	0.138686	0.751174
O	O	0.55	0.138686	0.237089
O	O	0.55	0.861314	0.751174
O	O	0.44	0.861314	0.237089
H	H	0.527	0.121157	0.41784
H	H	0.4793	0.132843	0.962441
H	H	0.4793	0.867157	0.0375587
H	H	0.527	0.878843	0.581455
