data_AGNR_OH_13
_audit_creation_method                 'DeviceStudio'
_symmetry_space_group_name_H-M         'P1'
_symmetry_Int_Tables_number            1
_symmetry_cell_setting                 Orthorhombic
loop_
_symmetry_equiv_pos_as_xyz
x,y,z
_cell_length_a                         10
_cell_length_b                         26.85
_cell_length_c                         4.26
_cell_angle_alpha                      90
_cell_angle_beta                       90
_cell_angle_gamma                      90
loop_
_atom_site_label
_atom_site_type_symbol
_atom_site_fract_x
_atom_site_fract_y
_atom_site_fract_z
C	C	0.5	0.225194	0.666667
C	C	0.5	0.270995	0.833333
C	C	0.5	0.225194	0.333333
C	C	0.5	0.316796	0.666667
C	C	0.5	0.362597	0.833333
C	C	0.5	0.270995	0.166667
C	C	0.5	0.316796	0.333333
C	C	0.5	0.408398	0.666667
C	C	0.5	0.454199	0.833333
C	C	0.5	0.362597	0.166667
C	C	0.5	0.408398	0.333333
C	C	0.5	0.5	0.666667
C	C	0.5	0.545801	0.833333
C	C	0.5	0.454199	0.166667
C	C	0.5	0.5	0.333333
C	C	0.5	0.591602	0.666667
C	C	0.5	0.637403	0.833333
C	C	0.5	0.545801	0.166667
C	C	0.5	0.591602	0.333333
C	C	0.5	0.683204	0.666667
C	C	0.5	0.729005	0.833333
C	C	0.5	0.637403	0.166667
C	C	0.5	0.683204	0.333333
C	C	0.5	0.774806	0.666667
C	C	0.5	0.729005	0.166667
C	C	0.5	0.774806	0.333333
O	O	0.44	0.176777	0.751174
O	O	0.55	0.176777	0.237089
O	O	0.55	0.823223	0.751174
O	O	0.44	0.823223	0.237089
H	H	0.527	0.154431	0.41784
H	H	0.4793	0.169328	0.962441
H	H	0.4793	0.830672	0.0375587
H	H	0.527	0.84557	0.581455
