data_global
_cell_length_a 10
_cell_length_b 23.16
_cell_length_c 4.26
_cell_angle_alpha 90
_cell_angle_beta 90
_cell_angle_gamma 90
_symmetry_space_group_name_H-M 'P -1'
loop_
_symmetry_equiv_pos_as_xyz
  'x,y,z'
loop_
_atom_site_label
_atom_site_fract_x
_atom_site_fract_y
_atom_site_fract_z
C 0.5 0.261612 0.660291
C 0.5 0.313729 0.832043
C 0.5 0.261612 0.339709
C 0.5 0.366817 0.66704
C 0.5 0.420251 0.834013
C 0.5 0.313728 0.167957
C 0.5 0.366817 0.33296
C 0.499999 0.47347 0.667055
C 0.499999 0.52653 0.832945
C 0.5 0.420251 0.165988
C 0.499999 0.47347 0.332945
C 0.499999 0.579749 0.665987
C 0.5 0.633183 0.83296
C 0.499999 0.52653 0.167055
C 0.499999 0.579749 0.334012
C 0.5 0.686272 0.667957
C 0.500001 0.738388 0.83971
C 0.499999 0.633182 0.16704
C 0.5 0.686272 0.332043
C 0.500001 0.738388 0.160291
H 0.500001 0.220346 0.781672
H 0.500001 0.220346 0.218328
H 0.500001 0.779654 0.718329
H 0.500001 0.779654 0.281671
