data_global
_cell_length_a 10
_cell_length_b 30
_cell_length_c 17.04
_cell_angle_alpha 90
_cell_angle_beta 90
_cell_angle_gamma 90
_symmetry_space_group_name_H-M 'P -1'
loop_
_symmetry_equiv_pos_as_xyz
  'x,y,z'
loop_
_atom_site_label
_atom_site_fract_x
_atom_site_fract_y
_atom_site_fract_z
C 0.5 0.214595 0.408831
C 0.5 0.215636 0.664559
C 0.5 0.253595 0.453504
C 0.5 0.256184 0.702153
C 0.5 0.215636 0.326743
C 0.5 0.214595 0.582471
C 0.5 0.295897 0.415751
C 0.5 0.296052 0.657608
C 0.5 0.338304 0.454132
C 0.5 0.336861 0.695673
C 0.5 0.256185 0.28915
C 0.5 0.253595 0.537798
C 0.5 0.296053 0.333695
C 0.5 0.295897 0.575552
C 0.5 0.384515 0.154679
C 0.5 0.379721 0.413034
C 0.5 0.379193 0.662143
C 0.5 0.384788 0.915287
C 0.5 0.42275 0.203068
C 0.5 0.421557 0.453923
C 0.5 0.421461 0.704551
C 0.5 0.425105 0.954701
C 0.5 0.336862 0.295631
C 0.5 0.338304 0.537171
C 0.5 0.384788 0.0760153
C 0.5 0.379193 0.329161
C 0.5 0.379721 0.57827
C 0.5 0.384515 0.836626
C 0.5 0.464096 0.163108
C 0.5 0.462999 0.412615
C 0.5 0.462699 0.662755
C 0.5 0.464632 0.911529
C 0.5 0.504818 0.205205
C 0.5 0.504817 0.453677
C 0.5 0.504817 0.703368
C 0.5 0.504818 0.954088
C 0.5 0.425105 0.0366037
C 0.5 0.421461 0.286753
C 0.5 0.421557 0.537381
C 0.5 0.42275 0.788236
C 0.5 0.464632 0.0797743
C 0.5 0.462699 0.328549
C 0.5 0.462999 0.578689
C 0.5 0.464095 0.828196
C 0.5 0.54554 0.163109
C 0.5 0.546635 0.412615
C 0.5 0.546936 0.662755
C 0.5 0.545003 0.911529
C 0.5 0.586885 0.203067
C 0.5 0.588077 0.453923
C 0.5 0.588173 0.704551
C 0.5 0.584531 0.954702
C 0.5 0.504817 0.0372165
C 0.5 0.504817 0.287936
C 0.5 0.504817 0.537627
C 0.5 0.504817 0.786099
C 0.5 0.545004 0.0797738
C 0.5 0.546936 0.328549
C 0.5 0.546635 0.578689
C 0.5 0.54554 0.828197
C 0.5 0.625121 0.154683
C 0.5 0.629913 0.413034
C 0.5 0.630441 0.662142
C 0.5 0.624847 0.915284
C 0.5 0.671329 0.454132
C 0.5 0.672772 0.695673
C 0.5 0.584531 0.0366048
C 0.5 0.588173 0.286753
C 0.5 0.588077 0.537381
C 0.5 0.586885 0.788235
C 0.5 0.624847 0.0760122
C 0.5 0.630441 0.329161
C 0.5 0.629912 0.57827
C 0.5 0.62512 0.83663
C 0.5 0.713736 0.415752
C 0.5 0.713581 0.657609
C 0.5 0.756038 0.453505
C 0.5 0.753449 0.702154
C 0.5 0.672772 0.295632
C 0.5 0.671329 0.537172
C 0.5 0.713581 0.333696
C 0.5 0.713736 0.575553
C 0.5 0.795038 0.408833
C 0.5 0.793997 0.664561
C 0.5 0.753449 0.289151
C 0.5 0.756038 0.537799
C 0.5 0.793998 0.326744
C 0.5 0.795038 0.582472
H 0.5 0.182306 0.437968
H 0.5 0.18463 0.697889
H 0.5 0.25837 0.766083
H 0.5 0.18463 0.293413
H 0.5 0.182307 0.553334
H 0.499998 0.329882 0.756272
H 0.5 0.258371 0.22522
H 0.5 0.35148 0.174969
H 0.5 0.352882 0.945
H 0.5 0.329883 0.235032
H 0.5 0.352882 0.0463044
H 0.500001 0.35148 0.816335
H 0.5 0.658155 0.174969
H 0.5 0.656753 0.945
H 0.5 0.679751 0.756271
H 0.5 0.656753 0.0463051
H 0.5 0.658156 0.816336
H 0.5 0.751263 0.766084
H 0.5 0.679752 0.235032
H 0.5 0.827327 0.43797
H 0.5 0.825003 0.69789
H 0.5 0.751263 0.225221
H 0.5 0.825004 0.293415
H 0.5 0.827327 0.553335
