data_global
_cell_length_a 10
_cell_length_b 30
_cell_length_c 12.78
_cell_angle_alpha 90
_cell_angle_beta 90
_cell_angle_gamma 90
_symmetry_space_group_name_H-M 'P -1'
loop_
_symmetry_equiv_pos_as_xyz
  'x,y,z'
loop_
_atom_site_label
_atom_site_fract_x
_atom_site_fract_y
_atom_site_fract_z
C 0.5 0.224935 0.217498
C 0.5 0.221941 0.553633
C 0.5 0.226062 0.888754
C 0.5 0.264672 0.276406
C 0.5 0.262361 0.611909
C 0.5 0.266919 0.944523
C 0.5 0.226062 0.111245
C 0.5 0.22194 0.446367
C 0.5 0.224935 0.782503
C 0.5 0.306572 0.22141
C 0.5 0.302828 0.556152
C 0.5 0.307895 0.889823
C 0.5 0.34734 0.276755
C 0.5 0.343603 0.613354
C 0.5 0.349855 0.94498
C 0.5 0.266919 0.0554774
C 0.5 0.262361 0.388091
C 0.5 0.264672 0.723593
C 0.5 0.307895 0.110176
C 0.5 0.302829 0.443848
C 0.5 0.306572 0.778591
C 0.5 0.390047 0.221227
C 0.5 0.381418 0.551832
C 0.5 0.391658 0.889735
C 0.5 0.432819 0.265793
C 0.5 0.434156 0.94488
C 0.5 0.349855 0.0550202
C 0.5 0.343601 0.386644
C 0.5 0.34734 0.723245
C 0.5 0.391658 0.110263
C 0.5 0.38142 0.448168
C 0.5 0.390047 0.778774
C 0.5 0.472251 0.213971
C 0.5 0.477122 0.89354
C 0.5 0.521053 0.945479
C 0.5 0.434155 0.055121
C 0.5 0.432817 0.734202
C 0.5 0.477122 0.106457
C 0.5 0.472253 0.786034
C 0.5 0.569956 0.214407
C 0.5 0.564973 0.893273
C 0.5 0.609316 0.266644
C 0.5 0.607826 0.944689
C 0.5 0.521053 0.0545213
C 0.5 0.564973 0.106725
C 0.500001 0.569955 0.785597
C 0.5 0.652138 0.221948
C 0.5 0.661879 0.551806
C 0.5 0.650203 0.889095
C 0.5 0.695213 0.276681
C 0.5 0.699847 0.612543
C 0.5 0.691852 0.944682
C 0.5 0.607827 0.0553116
C 0.5 0.609317 0.733353
C 0.5 0.650203 0.110904
C 0.5 0.661878 0.448194
C 0.5 0.652138 0.778054
C 0.5 0.735298 0.220798
C 0.5 0.740889 0.556669
C 0.5 0.733471 0.890836
C 0.5 0.776832 0.275387
C 0.5 0.780059 0.617827
C 0.5 0.773594 0.946841
C 0.5 0.691852 0.0553178
C 0.5 0.699847 0.387457
C 0.5 0.695212 0.723319
C 0.5 0.733471 0.109164
C 0.5 0.740889 0.44333
C 0.5 0.735299 0.779203
C 0.5 0.773593 0.0531592
C 0.5 0.780059 0.382174
C 0.5 0.776832 0.724613
H 0.5 0.192821 0.256879
H 0.5 0.18991 0.593528
H 0.5 0.19458 0.930535
H 0.5 0.19458 0.0694659
H 0.5 0.18991 0.406471
H 0.5 0.192821 0.743122
H 0.5 0.80783 0.231585
H 0.5 0.81292 0.581527
H 0.5 0.805356 0.906365
H 0.5 0.805356 0.0936347
H 0.5 0.81292 0.418473
H 0.5 0.80783 0.768415
H 0.5 0.413827 0.581991
H 0.5 0.440957 0.346472
H 0.5 0.413826 0.418009
H 0.500001 0.499318 0.26757
H 0.499999 0.440957 0.653529
H 0.499999 0.499318 0.73243
H 0.499999 0.542887 0.268015
H 0.499999 0.601101 0.347446
H 0.500001 0.542887 0.731985
H 0.5 0.629641 0.582997
H 0.5 0.601101 0.652555
H 0.500001 0.629641 0.417004
