data_AGNR_OH_17
_audit_creation_method                 'DeviceStudio'
_symmetry_space_group_name_H-M         'P1'
_symmetry_Int_Tables_number            1
_symmetry_cell_setting                 Orthorhombic
loop_
_symmetry_equiv_pos_as_xyz
x,y,z
_cell_length_a                         10
_cell_length_b                         31.77
_cell_length_c                         4.26
_cell_angle_alpha                      90
_cell_angle_beta                       90
_cell_angle_gamma                      90
loop_
_atom_site_label
_atom_site_type_symbol
_atom_site_fract_x
_atom_site_fract_y
_atom_site_fract_z
C	C	0.5	0.190335	0.666667
C	C	0.5	0.229043	0.833333
C	C	0.5	0.190335	0.333333
C	C	0.5	0.267751	0.666667
C	C	0.5	0.30646	0.833333
C	C	0.5	0.229043	0.166667
C	C	0.5	0.267751	0.333333
C	C	0.5	0.345168	0.666667
C	C	0.5	0.383876	0.833333
C	C	0.5	0.30646	0.166667
C	C	0.5	0.345168	0.333333
C	C	0.5	0.422584	0.666667
C	C	0.5	0.461292	0.833333
C	C	0.5	0.383876	0.166667
C	C	0.5	0.422584	0.333333
C	C	0.5	0.5	0.666667
C	C	0.5	0.538708	0.833333
C	C	0.5	0.461292	0.166667
C	C	0.5	0.5	0.333333
C	C	0.5	0.577416	0.666667
C	C	0.5	0.616124	0.833333
C	C	0.5	0.538708	0.166667
C	C	0.5	0.577416	0.333333
C	C	0.5	0.654832	0.666667
C	C	0.5	0.69354	0.833333
C	C	0.5	0.616124	0.166667
C	C	0.5	0.654832	0.333333
C	C	0.5	0.732249	0.666667
C	C	0.5	0.770957	0.833333
C	C	0.5	0.69354	0.166667
C	C	0.5	0.732249	0.333333
C	C	0.5	0.809665	0.666667
C	C	0.5	0.770957	0.166667
C	C	0.5	0.809665	0.333333
O	O	0.44	0.149416	0.751174
O	O	0.55	0.149416	0.237089
O	O	0.55	0.850584	0.751174
O	O	0.44	0.850584	0.237089
H	H	0.527	0.13053	0.41784
H	H	0.4793	0.143121	0.962441
H	H	0.4793	0.856879	0.0375587
H	H	0.527	0.86947	0.581455
