data_global
_cell_length_a 10
_cell_length_b 25.62
_cell_length_c 4.26
_cell_angle_alpha 90
_cell_angle_beta 90
_cell_angle_gamma 90
_symmetry_space_group_name_H-M 'P -1'
loop_
_symmetry_equiv_pos_as_xyz
  'x,y,z'
loop_
_atom_site_label
_atom_site_fract_x
_atom_site_fract_y
_atom_site_fract_z
C 0.5 0.237901 0.658692
C 0.5 0.283698 0.833982
C 0.5 0.237901 0.341309
C 0.5 0.331641 0.666244
C 0.5 0.379888 0.833611
C 0.5 0.283698 0.166018
C 0.5 0.331641 0.333756
C 0.5 0.427865 0.667314
C 0.5 0.475884 0.833447
C 0.5 0.379888 0.166388
C 0.5 0.427865 0.332686
C 0.5 0.524107 0.666549
C 0.5 0.572129 0.832689
C 0.5 0.475884 0.166552
C 0.5 0.524107 0.333451
C 0.5 0.620108 0.666384
C 0.5 0.66836 0.833781
C 0.5 0.572129 0.167311
C 0.5 0.620108 0.333616
C 0.5 0.716307 0.666002
C 0.5 0.762104 0.841377
C 0.5 0.66836 0.166219
C 0.5 0.716307 0.333998
C 0.499999 0.762104 0.158623
F 0.5 0.188601 0.758463
F 0.5 0.188602 0.241537
F 0.500002 0.811407 0.741528
F 0.499998 0.811407 0.258472
