data_global
_cell_length_a 10
_cell_length_b 30
_cell_length_c 13.01
_cell_angle_alpha 90
_cell_angle_beta 90
_cell_angle_gamma 90
_symmetry_space_group_name_H-M 'P -1'
loop_
_symmetry_equiv_pos_as_xyz
  'x,y,z'
loop_
_atom_site_label
_atom_site_fract_x
_atom_site_fract_y
_atom_site_fract_z
C 0.5 0.320995 0.320081
C 0.5 0.348253 0.643348
C 0.5 0.375704 0.964846
C 0.5 0.356433 0.247623
C 0.5 0.382938 0.570328
C 0.5 0.409899 0.893603
C 0.5 0.40136 0.284709
C 0.5 0.427843 0.606251
C 0.5 0.455354 0.928414
C 0.5 0.329436 0.423191
C 0.5 0.357053 0.746653
C 0.5 0.348557 0.142005
C 0.5 0.373771 0.46224
C 0.5 0.40104 0.784396
C 0.5 0.437307 0.213964
C 0.5 0.463983 0.535185
C 0.5 0.491089 0.857422
C 0.5 0.482175 0.249883
C 0.5 0.508889 0.571116
C 0.5 0.535997 0.893352
C 0.5 0.383678 0.0713377
C 0.5 0.409855 0.392084
C 0.5 0.436862 0.713756
C 0.5 0.428758 0.107202
C 0.5 0.454939 0.428224
C 0.5 0.482185 0.749475
C 0.5 0.517797 0.178655
C 0.5 0.544621 0.500121
C 0.5 0.572137 0.822286
C 0.5 0.562663 0.214575
C 0.5 0.590075 0.534936
C 0.5 0.617043 0.858212
C 0.5 0.464357 0.0355138
C 0.5 0.490764 0.357208
C 0.5 0.517789 0.679063
C 0.5 0.509208 0.0713285
C 0.5 0.535613 0.393025
C 0.5 0.563111 0.714783
C 0.5 0.598613 0.143835
C 0.5 0.624267 0.463691
C 0.5 0.651727 0.785188
C 0.5 0.643538 0.180926
C 0.5 0.545037 1.00032
C 0.5 0.571209 0.321336
C 0.5 0.598929 0.644145
C 0.5 0.626202 0.966302
C 0.5 0.590118 0.0364617
C 0.5 0.616288 0.357204
C 0.5 0.642915 0.681891
C 0.5 0.670534 0.00535442
C 0.5 0.678975 0.108467
C 0.5 0.651408 0.286544
H 0.5 0.286775 0.291762
H 0.5 0.313656 0.618519
H 0.5 0.340981 0.940564
H 0.5 0.301312 0.475963
H 0.5 0.329006 0.799609
H 0.5 0.314293 0.113738
H 0.5 0.658995 0.487941
H 0.5 0.686331 0.80999
H 0.5 0.670953 0.628916
H 0.5 0.69865 0.952564
H 0.5 0.713191 0.136794
H 0.5 0.685669 0.314829
