data_global
_cell_length_a 10
_cell_length_b 30
_cell_length_c 17.22
_cell_angle_alpha 90
_cell_angle_beta 90
_cell_angle_gamma 90
_symmetry_space_group_name_H-M 'P -1'
loop_
_symmetry_equiv_pos_as_xyz
  'x,y,z'
loop_
_atom_site_label
_atom_site_fract_x
_atom_site_fract_y
_atom_site_fract_z
C 0.5 0.359467 0.198208
C 0.5 0.380429 0.444405
C 0.5 0.401087 0.689503
C 0.5 0.421527 0.934685
C 0.5 0.396375 0.14622
C 0.5 0.416615 0.391827
C 0.5 0.437334 0.637761
C 0.5 0.457239 0.883899
C 0.5 0.44061 0.177856
C 0.5 0.460771 0.42249
C 0.5 0.481186 0.668468
C 0.5 0.501833 0.914041
C 0.5 0.365919 0.276578
C 0.5 0.387187 0.522839
C 0.5 0.407569 0.768399
C 0.5 0.390635 0.0660722
C 0.5 0.409551 0.309696
C 0.5 0.430595 0.554964
C 0.5 0.450596 0.800591
C 0.5 0.47789 0.127476
C 0.5 0.498146 0.371668
C 0.5 0.518786 0.617251
C 0.5 0.539208 0.863222
C 0.5 0.522089 0.158227
C 0.5 0.54274 0.40181
C 0.5 0.562638 0.647957
C 0.5 0.583363 0.893881
C 0.5 0.427284 0.0155863
C 0.5 0.446921 0.259582
C 0.5 0.467607 0.504527
C 0.5 0.487861 0.750309
C 0.5 0.471602 0.0462941
C 0.5 0.491252 0.290462
C 0.5 0.512116 0.535408
C 0.5 0.532371 0.781188
C 0.5 0.55937 0.107848
C 0.5 0.578453 0.351021
C 0.5 0.598884 0.596214
C 0.5 0.619548 0.841302
C 0.5 0.603604 0.139482
C 0.5 0.508729 0.995244
C 0.5 0.528379 0.23941
C 0.5 0.549382 0.485122
C 0.5 0.569381 0.730751
C 0.5 0.590429 0.97601
C 0.5 0.55306 0.0261218
C 0.5 0.572697 0.270117
C 0.5 0.592408 0.517317
C 0.5 0.612791 0.762867
C 0.5 0.63406 0.00912717
C 0.5 0.640512 0.0874946
C 0.5 0.609346 0.219629
H 0.5 0.325818 0.17408
H 0.5 0.346377 0.422786
H 0.5 0.367082 0.667728
H 0.5 0.387391 0.913285
H 0.5 0.336854 0.314308
H 0.5 0.358194 0.560676
H 0.5 0.378369 0.805801
H 0.5 0.356977 0.0418248
H 0.5 0.612587 0.372427
H 0.5 0.632887 0.617995
H 0.5 0.653599 0.862924
H 0.5 0.621611 0.479919
H 0.5 0.641784 0.725032
H 0.5 0.663126 0.971399
H 0.5 0.674162 0.111616
H 0.5 0.643007 0.243862
