data_global
_cell_length_a 10
_cell_length_b 21.0678
_cell_length_c 17.04
_cell_angle_alpha 90
_cell_angle_beta 90
_cell_angle_gamma 90
_symmetry_space_group_name_H-M 'P -1'
loop_
_symmetry_equiv_pos_as_xyz
  'x,y,z'
loop_
_atom_site_label
_atom_site_fract_x
_atom_site_fract_y
_atom_site_fract_z
C 0.5 0.237207 0.163375
C 0.5 0.236668 0.414056
C 0.5 0.237738 0.664689
C 0.5 0.238376 0.913954
C 0.5 0.29432 0.206622
C 0.5 0.29398 0.457095
C 0.5 0.295257 0.707206
C 0.5 0.295614 0.956727
C 0.5 0.237632 0.0831953
C 0.5 0.23667 0.333803
C 0.5 0.23725 0.58451
C 0.5 0.238482 0.833862
C 0.5 0.352809 0.165415
C 0.5 0.352243 0.415713
C 0.5 0.353445 0.665904
C 0.5 0.354136 0.915558
C 0.5 0.411384 0.207194
C 0.5 0.410988 0.457545
C 0.5 0.412501 0.707594
C 0.5 0.412962 0.95711
C 0.5 0.295117 0.0405973
C 0.5 0.293952 0.290708
C 0.5 0.2943 0.541208
C 0.5 0.295744 0.791106
C 0.5 0.353432 0.0818941
C 0.5 0.352259 0.332115
C 0.5 0.352839 0.582424
C 0.5 0.354329 0.832223
C 0.5 0.469871 0.165438
C 0.5 0.469174 0.415727
C 0.5 0.470694 0.666082
C 0.5 0.47164 0.915618
C 0.5 0.527956 0.207276
C 0.5 0.527418 0.457289
C 0.5 0.529473 0.707627
C 0.5 0.530401 0.957035
C 0.5 0.412289 0.0402118
C 0.5 0.410942 0.290282
C 0.5 0.41137 0.540638
C 0.5 0.413246 0.790666
C 0.5 0.470661 0.0819406
C 0.5 0.469208 0.332104
C 0.5 0.469928 0.582359
C 0.5 0.472133 0.832205
C 0.5 0.586624 0.166099
C 0.5 0.585516 0.415055
C 0.5 0.587696 0.665732
C 0.5 0.589223 0.916057
C 0.5 0.644895 0.208562
C 0.5 0.644209 0.455825
C 0.5 0.646842 0.706703
C 0.5 0.647744 0.958929
C 0.5 0.529291 0.0407734
C 0.5 0.52729 0.290507
C 0.5 0.527753 0.540643
C 0.5 0.531024 0.790882
C 0.5 0.587341 0.0831634
C 0.5 0.585635 0.332347
C 0.5 0.586615 0.582173
C 0.5 0.590922 0.83218
C 0.5 0.703786 0.169165
C 0.5 0.701037 0.414657
C 0.5 0.701971 0.659985
C 0.5 0.706759 0.919521
C 0.5 0.761382 0.21261
C 0.5 0.762559 0.965123
C 0.5 0.646429 0.0426194
C 0.5 0.644003 0.291366
C 0.5 0.643936 0.539493
C 0.5 0.649971 0.790529
C 0.5 0.70402 0.0857845
C 0.5 0.70233 0.333365
C 0.5 0.701188 0.58046
C 0.5 0.711019 0.833508
C 0.5 0.761637 0.0448491
C 0.5 0.760847 0.292425
C 0.5 0.772458 0.805727
H 0.5 0.19169 0.193415
H 0.5 0.191266 0.444383
H 0.5 0.192515 0.69536
H 0.5 0.192999 0.944245
H 0.5 0.192358 0.0526529
H 0.5 0.19124 0.303574
H 0.5 0.191693 0.554607
H 0.5 0.193148 0.803529
H 0.5 0.806775 0.18241
H 0.5 0.809221 0.938656
H 0.5 0.80668 0.0757698
H 0.5 0.804977 0.325921
H 0.5 0.811514 0.846683
H 0.5 0.746456 0.444817
H 0.5 0.747838 0.685791
H 0.5 0.746478 0.550102
H 0.5 0.790707 0.747035
