data_global
_cell_length_a 10
_cell_length_b 30
_cell_length_c 13.01
_cell_angle_alpha 90
_cell_angle_beta 90
_cell_angle_gamma 90
_symmetry_space_group_name_H-M 'P -1'
loop_
_symmetry_equiv_pos_as_xyz
  'x,y,z'
loop_
_atom_site_label
_atom_site_fract_x
_atom_site_fract_y
_atom_site_fract_z
C 0.5 0.361167 0.284572
C 0.5 0.388584 0.60788
C 0.5 0.416071 0.929249
C 0.5 0.39663 0.211841
C 0.5 0.423322 0.534638
C 0.5 0.450396 0.858196
C 0.5 0.441636 0.249043
C 0.5 0.468259 0.570641
C 0.5 0.49575 0.893415
C 0.5 0.369642 0.387524
C 0.5 0.397425 0.710948
C 0.5 0.388762 0.106433
C 0.5 0.414095 0.42674
C 0.5 0.441569 0.748779
C 0.5 0.477521 0.178408
C 0.5 0.504239 0.499408
C 0.5 0.53173 0.822173
C 0.5 0.522461 0.214433
C 0.5 0.549589 0.534629
C 0.5 0.576669 0.858187
C 0.5 0.424005 0.0356524
C 0.5 0.450089 0.356523
C 0.5 0.477241 0.678431
C 0.5 0.469079 0.0716325
C 0.5 0.495184 0.392719
C 0.5 0.52274 0.714383
C 0.5 0.558348 0.143804
C 0.5 0.583913 0.463581
C 0.5 0.611411 0.784947
C 0.5 0.603355 0.181007
C 0.5 0.5048 1.00011
C 0.5 0.530902 0.321206
C 0.5 0.558412 0.644043
C 0.5 0.585891 0.966099
C 0.5 0.549897 0.0363151
C 0.5 0.575973 0.357186
C 0.5 0.602555 0.681883
C 0.5 0.630346 0.00531353
C 0.5 0.638819 0.108269
C 0.5 0.61122 0.286417
H 0.5 0.326908 0.256349
H 0.5 0.353986 0.583012
H 0.5 0.381398 0.904626
H 0.5 0.341568 0.440398
H 0.5 0.369399 0.763939
H 0.5 0.354488 0.0780391
H 0.5 0.618586 0.488186
H 0.5 0.646013 0.8098
H 0.5 0.630574 0.628884
H 0.5 0.658414 0.952415
H 0.5 0.67308 0.13649
H 0.5 0.645489 0.314824
