data_global
_cell_length_a 10
_cell_length_b 39.15
_cell_length_c 4.26
_cell_angle_alpha 90
_cell_angle_beta 90
_cell_angle_gamma 90
_symmetry_space_group_name_H-M 'P -1'
loop_
_symmetry_equiv_pos_as_xyz
  'x,y,z'
loop_
_atom_site_label
_atom_site_fract_x
_atom_site_fract_y
_atom_site_fract_z
C 0.5 0.154475 0.666667
C 0.5 0.185886 0.833333
C 0.5 0.154475 0.333333
C 0.5 0.217297 0.666667
C 0.5 0.248709 0.833333
C 0.5 0.185886 0.166667
C 0.5 0.217297 0.333333
C 0.5 0.28012 0.666667
C 0.5 0.311532 0.833333
C 0.5 0.248709 0.166667
C 0.5 0.28012 0.333333
C 0.5 0.342943 0.666667
C 0.5 0.374354 0.833333
C 0.5 0.311532 0.166667
C 0.5 0.342943 0.333333
C 0.5 0.405766 0.666667
C 0.5 0.437177 0.833333
C 0.5 0.374354 0.166667
C 0.5 0.405766 0.333333
C 0.5 0.468589 0.666667
C 0.5 0.5 0.833333
C 0.5 0.437177 0.166667
C 0.5 0.468589 0.333333
C 0.5 0.531411 0.666667
C 0.5 0.562823 0.833333
C 0.5 0.5 0.166667
C 0.5 0.531411 0.333333
C 0.5 0.594234 0.666667
C 0.5 0.625646 0.833333
C 0.5 0.562823 0.166667
C 0.5 0.594234 0.333333
C 0.5 0.657057 0.666667
C 0.5 0.688468 0.833333
C 0.5 0.625646 0.166667
C 0.5 0.657057 0.333333
C 0.5 0.71988 0.666667
C 0.5 0.751291 0.833333
C 0.5 0.688468 0.166667
C 0.5 0.71988 0.333333
C 0.5 0.782703 0.666667
C 0.5 0.814114 0.833333
C 0.5 0.751291 0.166667
C 0.5 0.782703 0.333333
C 0.5 0.845525 0.666667
C 0.5 0.814114 0.166667
C 0.5 0.845525 0.333333
H 0.5 0.130363 0.794601
H 0.5 0.130363 0.205399
H 0.5 0.869637 0.794601
H 0.5 0.869637 0.205399
