data_AGNR_H_7
_audit_creation_method                 'DeviceStudio'
_symmetry_space_group_name_H-M         'P1'
_symmetry_Int_Tables_number            1
_symmetry_cell_setting                 Orthorhombic
loop_
_symmetry_equiv_pos_as_xyz
x,y,z
_cell_length_a                         10
_cell_length_b                         19.47
_cell_length_c                         4.26
_cell_angle_alpha                      90
_cell_angle_beta                       90
_cell_angle_gamma                      90
loop_
_atom_site_label
_atom_site_type_symbol
_atom_site_fract_x
_atom_site_fract_y
_atom_site_fract_z
C	C	0.5	0.310515	0.666667
C	C	0.5	0.373677	0.833333
C	C	0.5	0.310515	0.333333
C	C	0.5	0.436838	0.666667
C	C	0.5	0.5	0.833333
C	C	0.5	0.373677	0.166667
C	C	0.5	0.436838	0.333333
C	C	0.5	0.563162	0.666667
C	C	0.5	0.626323	0.833333
C	C	0.5	0.5	0.166667
C	C	0.5	0.563162	0.333333
C	C	0.5	0.689485	0.666667
C	C	0.5	0.626323	0.166667
C	C	0.5	0.689485	0.333333
O	O	0.44	0.243746	0.751174
O	O	0.55	0.243746	0.237089
O	O	0.55	0.756254	0.751174
O	O	0.44	0.756254	0.237089
H	H	0.527	0.212929	0.41784
H	H	0.4793	0.233473	0.962441
H	H	0.4793	0.766527	0.0375587
H	H	0.527	0.787071	0.581455
