data_global
_cell_length_a 10
_cell_length_b 24.39
_cell_length_c 4.26
_cell_angle_alpha 90
_cell_angle_beta 90
_cell_angle_gamma 90
_symmetry_space_group_name_H-M 'P -1'
loop_
_symmetry_equiv_pos_as_xyz
  'x,y,z'
loop_
_atom_site_label
_atom_site_fract_x
_atom_site_fract_y
_atom_site_fract_z
C 0.5 0.248295 0.660086
C 0.5 0.297849 0.832458
C 0.5 0.248295 0.339914
C 0.500001 0.348296 0.667049
C 0.500001 0.39898 0.833985
C 0.5 0.297849 0.167542
C 0.500001 0.348296 0.332951
C 0.5 0.449518 0.666519
C 0.5 0.5 0.833178
C 0.500001 0.39898 0.166015
C 0.5 0.449518 0.333481
C 0.5 0.550481 0.666518
C 0.5 0.60102 0.833983
C 0.5 0.5 0.166822
C 0.5 0.550481 0.333481
C 0.5 0.651704 0.667053
C 0.5 0.702151 0.832457
C 0.5 0.60102 0.166016
C 0.5 0.651704 0.332947
C 0.5 0.751706 0.660099
C 0.5 0.702151 0.167543
C 0.5 0.751706 0.3399
H 0.499999 0.209111 0.781467
H 0.499999 0.209111 0.218534
H 0.5 0.790889 0.781467
H 0.5 0.790889 0.218532
