data_global
_cell_length_a 10
_cell_length_b 21.0678
_cell_length_c 17.04
_cell_angle_alpha 90
_cell_angle_beta 90
_cell_angle_gamma 90
_symmetry_space_group_name_H-M 'P -1'
loop_
_symmetry_equiv_pos_as_xyz
  'x,y,z'
loop_
_atom_site_label
_atom_site_fract_x
_atom_site_fract_y
_atom_site_fract_z
C 0.5 0.234551 0.166667
C 0.5 0.234551 0.416667
C 0.5 0.234551 0.666667
C 0.5 0.234551 0.916667
C 0.5 0.292922 0.208333
C 0.5 0.292922 0.458333
C 0.5 0.292922 0.708333
C 0.5 0.292922 0.958333
C 0.5 0.234551 0.0833333
C 0.5 0.234551 0.333333
C 0.5 0.234551 0.583333
C 0.5 0.234551 0.833333
C 0.5 0.351293 0.166667
C 0.5 0.351293 0.416667
C 0.5 0.351293 0.666667
C 0.5 0.351293 0.916667
C 0.5 0.409665 0.208333
C 0.5 0.409665 0.458333
C 0.5 0.409665 0.708333
C 0.5 0.409665 0.958333
C 0.5 0.292922 0.0416667
C 0.5 0.292922 0.291667
C 0.5 0.292922 0.541667
C 0.5 0.292922 0.791667
C 0.5 0.351293 0.0833333
C 0.5 0.351293 0.333333
C 0.5 0.351293 0.583333
C 0.5 0.351293 0.833333
C 0.5 0.468036 0.166667
C 0.5 0.468036 0.416667
C 0.5 0.468036 0.666667
C 0.5 0.468036 0.916667
C 0.5 0.526407 0.208333
C 0.5 0.526407 0.458333
C 0.5 0.526407 0.708333
C 0.5 0.526407 0.958333
C 0.5 0.409665 0.0416667
C 0.5 0.409665 0.291667
C 0.5 0.409665 0.541667
C 0.5 0.409665 0.791667
C 0.5 0.468036 0.0833333
C 0.5 0.468036 0.333333
C 0.5 0.468036 0.583333
C 0.5 0.468036 0.833333
C 0.5 0.584779 0.166667
C 0.5 0.584779 0.416667
C 0.5 0.584779 0.666667
C 0.5 0.584779 0.916667
C 0.5 0.64315 0.208333
C 0.5 0.64315 0.708333
C 0.5 0.64315 0.958333
C 0.5 0.526407 0.0416667
C 0.5 0.526407 0.291667
C 0.5 0.526407 0.541667
C 0.5 0.526407 0.791667
C 0.5 0.584779 0.0833333
C 0.5 0.584779 0.333333
C 0.5 0.584779 0.583333
C 0.5 0.584779 0.833333
C 0.5 0.701521 0.166667
C 0.5 0.701521 0.666667
C 0.5 0.701521 0.916667
C 0.5 0.759893 0.208333
C 0.5 0.759893 0.708333
C 0.5 0.759893 0.958333
C 0.5 0.64315 0.0416667
C 0.5 0.64315 0.291667
C 0.5 0.64315 0.541667
C 0.5 0.64315 0.791667
C 0.5 0.701521 0.0833333
C 0.5 0.701521 0.333333
C 0.5 0.701521 0.583333
C 0.5 0.701521 0.833333
C 0.5 0.759893 0.0416667
C 0.5 0.759893 0.291667
C 0.5 0.759893 0.541667
C 0.5 0.759893 0.791667
H 0.5 0.189745 0.19865
H 0.5 0.189745 0.44865
H 0.5 0.189745 0.69865
H 0.5 0.189745 0.94865
H 0.5 0.189745 0.0513498
H 0.5 0.189745 0.30135
H 0.5 0.189745 0.55135
H 0.5 0.189745 0.80135
H 0.5 0.804699 0.17635
H 0.5 0.804699 0.67635
H 0.5 0.804699 0.92635
H 0.5 0.804699 0.0736502
H 0.5 0.804699 0.32365
H 0.5 0.804699 0.57365
H 0.5 0.804699 0.82365
H 0.5 0.629585 0.44865
H 0.5 0.64315 0.4777
H 0.5 0.701521 0.3973
H 0.5 0.759893 0.4777
