data_global
_cell_length_a 10
_cell_length_b 30
_cell_length_c 17.04
_cell_angle_alpha 90
_cell_angle_beta 90
_cell_angle_gamma 90
_symmetry_space_group_name_H-M 'P -1'
loop_
_symmetry_equiv_pos_as_xyz
  'x,y,z'
loop_
_atom_site_label
_atom_site_fract_x
_atom_site_fract_y
_atom_site_fract_z
C 0.5 0.29481 0.414105
C 0.5 0.295131 0.665834
C 0.5 0.336687 0.210082
C 0.5 0.335209 0.458214
C 0.5 0.33599 0.708218
C 0.5 0.33655 0.959814
C 0.5 0.295131 0.334166
C 0.5 0.29481 0.585895
C 0.5 0.376403 0.167665
C 0.5 0.376542 0.417167
C 0.5 0.376987 0.666127
C 0.5 0.3766 0.916972
C 0.5 0.417767 0.208781
C 0.5 0.41778 0.458576
C 0.5 0.417862 0.708053
C 0.5 0.417588 0.958207
C 0.5 0.33655 0.0401859
C 0.5 0.33599 0.291782
C 0.5 0.335209 0.541786
C 0.5 0.336687 0.789918
C 0.5 0.3766 0.0830285
C 0.5 0.376987 0.333874
C 0.5 0.376542 0.582833
C 0.5 0.376403 0.832335
C 0.5 0.458948 0.166834
C 0.5 0.458928 0.416772
C 0.5 0.459039 0.666332
C 0.5 0.459 0.916439
C 0.5 0.5 0.208451
C 0.5 0.5 0.45836
C 0.5 0.5 0.70795
C 0.5 0.5 0.95796
C 0.5 0.417588 0.0417928
C 0.5 0.417862 0.291947
C 0.5 0.41778 0.541424
C 0.5 0.417767 0.791219
C 0.5 0.459 0.083561
C 0.5 0.459039 0.333668
C 0.5 0.458928 0.583228
C 0.5 0.458948 0.833166
C 0.5 0.541052 0.166833
C 0.5 0.541072 0.416772
C 0.5 0.540961 0.666332
C 0.5 0.541 0.916439
C 0.5 0.582233 0.208781
C 0.5 0.58222 0.458576
C 0.5 0.582138 0.708053
C 0.5 0.582412 0.958207
C 0.5 0.5 0.0420394
C 0.5 0.5 0.29205
C 0.5 0.5 0.54164
C 0.5 0.5 0.791549
C 0.5 0.541 0.083561
C 0.5 0.540961 0.333668
C 0.5 0.541072 0.583228
C 0.5 0.541052 0.833166
C 0.5 0.623598 0.167665
C 0.5 0.623458 0.417167
C 0.5 0.623013 0.666127
C 0.5 0.6234 0.916972
C 0.5 0.663313 0.210082
C 0.5 0.664791 0.458214
C 0.5 0.66401 0.708218
C 0.5 0.66345 0.959814
C 0.5 0.582412 0.0417928
C 0.5 0.582138 0.291947
C 0.5 0.58222 0.541424
C 0.5 0.582233 0.791219
C 0.5 0.6234 0.0830283
C 0.5 0.623013 0.333874
C 0.5 0.623458 0.582833
C 0.5 0.623597 0.832335
C 0.5 0.70519 0.414105
C 0.5 0.704869 0.665834
C 0.5 0.66345 0.0401859
C 0.5 0.66401 0.291782
C 0.5 0.664791 0.541786
C 0.5 0.663313 0.789918
C 0.5 0.704869 0.334166
C 0.5 0.70519 0.585895
H 0.5 0.262896 0.444405
H 0.5 0.263911 0.69865
H 0.5 0.263911 0.30135
H 0.5 0.262896 0.555595
H 0.5 0.737104 0.444405
H 0.5 0.736089 0.69865
H 0.5 0.736089 0.30135
H 0.5 0.737104 0.555595
H 0.5 0.304682 0.180074
H 0.5 0.304644 0.929598
H 0.5 0.304644 0.0704021
H 0.5 0.304682 0.819926
H 0.5 0.695318 0.180074
H 0.5 0.695356 0.929598
H 0.5 0.695356 0.0704019
H 0.5 0.695318 0.819926
