data_global
_cell_length_a 10
_cell_length_b 30
_cell_length_c 15.36
_cell_angle_alpha 90
_cell_angle_beta 90
_cell_angle_gamma 90
_symmetry_space_group_name_H-M 'P -1'
loop_
_symmetry_equiv_pos_as_xyz
  'x,y,z'
loop_
_atom_site_label
_atom_site_fract_x
_atom_site_fract_y
_atom_site_fract_z
C 0.5 0.322933 0.540024
C 0.5 0.357986 0.811027
C 0.5 0.335269 0.300142
C 0.5 0.368165 0.568649
C 0.5 0.402812 0.838635
C 0.5 0.312074 0.453769
C 0.5 0.346829 0.724591
C 0.5 0.381601 0.994026
C 0.5 0.368627 0.235958
C 0.5 0.40255 0.505452
C 0.5 0.436939 0.775168
C 0.5 0.414637 0.262308
C 0.5 0.448404 0.531582
C 0.5 0.483042 0.800825
C 0.5 0.345748 0.388477
C 0.5 0.379794 0.659069
C 0.5 0.414115 0.930251
C 0.5 0.358462 0.146704
C 0.5 0.391531 0.415464
C 0.5 0.425485 0.685025
C 0.5 0.460368 0.955082
C 0.5 0.448863 0.198589
C 0.5 0.482546 0.4677
C 0.5 0.516966 0.737632
C 0.5 0.494497 0.224319
C 0.5 0.528236 0.493484
C 0.5 0.563069 0.763289
C 0.5 0.391877 0.0835718
C 0.5 0.425716 0.351825
C 0.5 0.459902 0.621167
C 0.5 0.494364 0.891418
C 0.5 0.437877 0.109134
C 0.5 0.471437 0.377877
C 0.5 0.505644 0.647038
C 0.5 0.540107 0.91729
C 0.5 0.528572 0.160579
C 0.5 0.562132 0.429322
C 0.5 0.597196 0.699822
C 0.5 0.631845 0.969807
C 0.5 0.574292 0.18663
C 0.5 0.608132 0.454884
C 0.5 0.642023 0.72743
C 0.5 0.677077 0.998432
C 0.5 0.471773 0.0449718
C 0.5 0.505512 0.314136
C 0.5 0.539641 0.583374
C 0.5 0.574523 0.853431
C 0.5 0.517463 0.0707561
C 0.5 0.551146 0.339867
C 0.5 0.585894 0.608205
C 0.5 0.620214 0.879387
C 0.5 0.608479 0.122992
C 0.5 0.641548 0.391751
C 0.5 0.654261 0.149979
C 0.5 0.551605 0.00687352
C 0.5 0.585372 0.276147
C 0.5 0.618408 0.54443
C 0.5 0.653179 0.813866
C 0.5 0.597459 0.0330034
C 0.5 0.631382 0.302497
C 0.5 0.687936 0.0846872
C 0.5 0.66474 0.238314
H 0.5 0.296104 0.587646
H 0.5 0.331194 0.858731
H 0.5 0.300323 0.28027
H 0.5 0.277219 0.433492
H 0.5 0.311716 0.707087
H 0.5 0.346387 0.976926
H 0.5 0.323582 0.126304
H 0.5 0.668816 0.679727
H 0.5 0.703907 0.950813
H 0.5 0.676427 0.41215
H 0.5 0.653621 0.561532
H 0.5 0.688291 0.831372
H 0.5 0.72279 0.104966
H 0.5 0.699687 0.258187
