data_global
_cell_length_a 10
_cell_length_b 21.0678
_cell_length_c 17.04
_cell_angle_alpha 90
_cell_angle_beta 90
_cell_angle_gamma 90
_symmetry_space_group_name_H-M 'P -1'
loop_
_symmetry_equiv_pos_as_xyz
  'x,y,z'
loop_
_atom_site_label
_atom_site_fract_x
_atom_site_fract_y
_atom_site_fract_z
C 0.5 0.237781 0.165099
C 0.5 0.237914 0.415102
C 0.5 0.237867 0.665023
C 0.5 0.237759 0.915042
C 0.5 0.295115 0.208019
C 0.5 0.295265 0.45801
C 0.5 0.295168 0.707994
C 0.5 0.295049 0.958024
C 0.5 0.237759 0.0849578
C 0.5 0.237867 0.334977
C 0.5 0.237914 0.584898
C 0.5 0.237781 0.834901
C 0.5 0.353462 0.166715
C 0.5 0.353629 0.41675
C 0.5 0.353545 0.666763
C 0.5 0.35345 0.916762
C 0.5 0.412275 0.208428
C 0.5 0.412438 0.458507
C 0.5 0.41229 0.708563
C 0.5 0.412213 0.958525
C 0.5 0.295049 0.0419756
C 0.5 0.295168 0.292006
C 0.5 0.295265 0.54199
C 0.5 0.295115 0.791981
C 0.5 0.35345 0.0832385
C 0.5 0.353545 0.333237
C 0.5 0.353629 0.58325
C 0.5 0.353462 0.833285
C 0.5 0.470727 0.166653
C 0.5 0.470974 0.416796
C 0.5 0.47079 0.666926
C 0.5 0.470756 0.916841
C 0.5 0.529159 0.208122
C 0.5 0.529302 0.458236
C 0.5 0.52898 0.708516
C 0.5 0.529173 0.958324
C 0.5 0.412213 0.0414754
C 0.5 0.41229 0.291438
C 0.5 0.412438 0.541493
C 0.5 0.412275 0.791572
C 0.5 0.470756 0.0831595
C 0.5 0.47079 0.333074
C 0.5 0.470974 0.583204
C 0.5 0.470727 0.833347
C 0.5 0.587745 0.166253
C 0.5 0.587967 0.416386
C 0.5 0.587677 0.666754
C 0.5 0.587832 0.916658
C 0.5 0.646431 0.207967
C 0.5 0.646976 0.457458
C 0.5 0.645851 0.708708
C 0.5 0.646678 0.958185
C 0.5 0.529173 0.0416761
C 0.5 0.52898 0.291484
C 0.5 0.529302 0.541764
C 0.5 0.529159 0.791878
C 0.5 0.587832 0.0833426
C 0.5 0.587677 0.333246
C 0.5 0.587967 0.583614
C 0.5 0.587745 0.833747
C 0.5 0.705158 0.167229
C 0.5 0.703281 0.415149
C 0.5 0.7042 0.666741
C 0.5 0.705144 0.916588
C 0.5 0.762669 0.211068
C 0.5 0.762307 0.70892
C 0.5 0.762491 0.959967
C 0.5 0.646678 0.0418155
C 0.5 0.645851 0.291292
C 0.5 0.646976 0.542542
C 0.5 0.646431 0.792033
C 0.5 0.705144 0.0834118
C 0.5 0.7042 0.333259
C 0.5 0.703281 0.584851
C 0.5 0.705158 0.832771
C 0.5 0.762491 0.0400333
C 0.5 0.762307 0.29108
C 0.5 0.762669 0.788932
H 0.5 0.192405 0.195436
H 0.5 0.192547 0.445453
H 0.5 0.192479 0.695333
H 0.5 0.192374 0.945356
H 0.5 0.192374 0.0546441
H 0.5 0.192479 0.304667
H 0.5 0.192547 0.554547
H 0.5 0.192405 0.804564
H 0.5 0.80808 0.180749
H 0.5 0.806757 0.676101
H 0.5 0.807888 0.92965
H 0.5 0.807888 0.07035
H 0.5 0.806757 0.323899
H 0.5 0.80808 0.819252
H 0.5 0.748943 0.445009
H 0.5 0.748943 0.554991
