data_global
_cell_length_a 10
_cell_length_b 36.69
_cell_length_c 4.26
_cell_angle_alpha 90
_cell_angle_beta 90
_cell_angle_gamma 90
_symmetry_space_group_name_H-M 'P -1'
loop_
_symmetry_equiv_pos_as_xyz
  'x,y,z'
loop_
_atom_site_label
_atom_site_fract_x
_atom_site_fract_y
_atom_site_fract_z
C 0.480799 0.165079 0.657584
C 0.49451 0.197289 0.833252
C 0.515176 0.165567 0.344545
C 0.500881 0.230924 0.666083
C 0.501359 0.264629 0.833529
C 0.505092 0.197401 0.166301
C 0.500034 0.230998 0.333846
C 0.500563 0.29818 0.667206
C 0.500078 0.331797 0.833452
C 0.499358 0.264655 0.166443
C 0.499661 0.298201 0.332845
C 0.499951 0.365486 0.666617
C 0.49996 0.39908 0.832997
C 0.499881 0.331809 0.166617
C 0.500003 0.365491 0.333396
C 0.49999 0.432693 0.666626
C 0.500009 0.466372 0.833318
C 0.50005 0.399094 0.166979
C 0.500041 0.432698 0.333343
C 0.500015 0.499991 0.666998
C 0.500022 0.533621 0.833325
C 0.500022 0.466373 0.166654
C 0.500015 0.500004 0.332995
C 0.500042 0.5673 0.666591
C 0.500048 0.600911 0.832857
C 0.500009 0.533625 0.166665
C 0.49999 0.567306 0.333302
C 0.499999 0.634508 0.666313
C 0.499883 0.668194 0.832938
C 0.499959 0.600918 0.166845
C 0.49995 0.634519 0.333099
C 0.499676 0.701798 0.666494
C 0.499372 0.735352 0.832641
C 0.500079 0.668201 0.166083
C 0.500572 0.701821 0.332128
C 0.500016 0.769007 0.664964
C 0.505034 0.802622 0.832281
C 0.501367 0.735365 0.16554
C 0.500857 0.769077 0.332746
C 0.515033 0.83445 0.653748
C 0.494455 0.802701 0.1653
C 0.480727 0.834915 0.340673
O 0.441001 0.130988 0.747092
O 0.553035 0.131298 0.237937
O 0.552947 0.868748 0.759619
O 0.441171 0.86899 0.250398
H 0.525301 0.115756 0.419448
H 0.479586 0.125094 0.962197
H 0.479996 0.87487 0.0352585
H 0.525026 0.884231 0.577713
