data_global
_cell_length_a 10
_cell_length_b 30
_cell_length_c 8.52
_cell_angle_alpha 90
_cell_angle_beta 90
_cell_angle_gamma 90
_symmetry_space_group_name_H-M 'P -1'
loop_
_symmetry_equiv_pos_as_xyz
  'x,y,z'
loop_
_atom_site_label
_atom_site_fract_x
_atom_site_fract_y
_atom_site_fract_z
C 0.5 0.232299 0.329956
C 0.5 0.232368 0.830136
C 0.5 0.272555 0.416167
C 0.5 0.272686 0.916148
C 0.5 0.232368 0.169865
C 0.5 0.232299 0.670044
C 0.5 0.313566 0.333582
C 0.5 0.313669 0.8336
C 0.5 0.354728 0.417074
C 0.5 0.354942 0.917181
C 0.5 0.272686 0.083852
C 0.5 0.272555 0.583833
C 0.5 0.313669 0.1664
C 0.5 0.313566 0.666418
C 0.5 0.395886 0.3332
C 0.5 0.396187 0.833565
C 0.5 0.436967 0.415335
C 0.5 0.437272 0.916551
C 0.5 0.354942 0.082819
C 0.5 0.354728 0.582926
C 0.5 0.396187 0.166435
C 0.5 0.395886 0.6668
C 0.5 0.476805 0.33004
C 0.5 0.478386 0.832259
C 0.5 0.520764 0.91674
C 0.5 0.437272 0.0834494
C 0.5 0.436967 0.584665
C 0.5 0.478386 0.167741
C 0.5 0.476805 0.66996
C 0.5 0.561861 0.839329
C 0.5 0.602948 0.916675
C 0.5 0.520764 0.0832603
C 0.5 0.561861 0.160671
C 0.5 0.647071 0.329843
C 0.5 0.645411 0.832008
C 0.5 0.687119 0.415366
C 0.5 0.686661 0.916497
C 0.5 0.602948 0.0833247
C 0.5 0.645411 0.167992
C 0.5 0.647071 0.670157
C 0.5 0.7282 0.333593
C 0.5 0.727755 0.833808
C 0.5 0.768636 0.420056
C 0.5 0.768132 0.920162
C 0.5 0.686661 0.0835027
C 0.5 0.687119 0.584634
C 0.5 0.727755 0.166192
C 0.5 0.7282 0.666407
C 0.5 0.768132 0.0798379
C 0.5 0.768636 0.579944
H 0.5 0.200446 0.390645
H 0.5 0.200561 0.89109
H 0.5 0.200561 0.10891
H 0.5 0.200446 0.609355
H 0.5 0.800513 0.359485
H 0.5 0.799953 0.859265
H 0.5 0.799953 0.140735
H 0.5 0.800513 0.640515
H 0.5 0.507999 0.394202
H 0.5 0.507999 0.605798
H 0.5 0.561753 0.711927
H 0.5 0.561753 0.288073
H 0.5 0.6159 0.39417
H 0.5 0.6159 0.60583
