data_2Z_2A_W7
_audit_creation_method                 'DeviceStudio'
_symmetry_space_group_name_H-M         'PM'
_symmetry_Int_Tables_number            6
_symmetry_cell_setting                 Orthorhombic
loop_
_symmetry_equiv_pos_as_xyz
x,y,z
-x,y,z
_cell_length_a                         10
_cell_length_b                         30
_cell_length_c                         13.01
_cell_angle_alpha                      90
_cell_angle_beta                       90
_cell_angle_gamma                      90
loop_
_atom_site_label
_atom_site_type_symbol
_atom_site_fract_x
_atom_site_fract_y
_atom_site_fract_z
C	C	0.5	0.361348	0.285612
C	C	0.5	0.388175	0.607156
C	C	0.5	0.415002	0.928699
C	C	0.5	0.39713	0.214163
C	C	0.5	0.423957	0.535707
C	C	0.5	0.450785	0.857251
C	C	0.5	0.441855	0.249896
C	C	0.5	0.468682	0.57144
C	C	0.5	0.49551	0.892984
C	C	0.5	0.37029	0.392793
C	C	0.5	0.397117	0.714337
C	C	0.5	0.388188	0.106982
C	C	0.5	0.415015	0.428526
C	C	0.5	0.441842	0.75007
C	C	0.5	0.477638	0.178448
C	C	0.5	0.504465	0.499991
C	C	0.5	0.531292	0.821535
C	C	0.5	0.522362	0.21418
C	C	0.5	0.54919	0.535724
C	C	0.5	0.576017	0.857268
C	C	0.5	0.42397	0.0355336
C	C	0.5	0.450797	0.357077
C	C	0.5	0.477625	0.678621
C	C	0.5	0.468695	0.0712664
C	C	0.5	0.495522	0.39281
C	C	0.5	0.52235	0.714354
C	C	0.5	0.558145	0.142732
C	C	0.5	0.584972	0.464276
C	C	0.5	0.611799	0.78582
C	C	0.5	0.60287	0.178465
C	C	0.5	0.504478	0.999818
C	C	0.5	0.531305	0.321362
C	C	0.5	0.558132	0.642905
C	C	0.5	0.584959	0.964449
C	C	0.5	0.549203	0.0355507
C	C	0.5	0.57603	0.357095
C	C	0.5	0.602857	0.678638
C	C	0.5	0.629684	0.000180006
C	C	0.5	0.638652	0.107016
C	C	0.5	0.611812	0.285646
H	H	0.5	0.327017	0.258183
H	H	0.5	0.353844	0.579727
H	H	0.5	0.380658	0.901361
H	H	0.5	0.342823	0.447637
H	H	0.5	0.369651	0.769181
H	H	0.5	0.353857	0.0795534
H	H	0.5	0.619303	0.491704
H	H	0.5	0.64613	0.813248
H	H	0.5	0.630324	0.623794
H	H	0.5	0.657151	0.945338
H	H	0.5	0.672983	0.134445
H	H	0.5	0.646143	0.313075
