data_global
_cell_length_a 10
_cell_length_b 19.47
_cell_length_c 4.26
_cell_angle_alpha 90
_cell_angle_beta 90
_cell_angle_gamma 90
_symmetry_space_group_name_H-M 'P -1'
loop_
_symmetry_equiv_pos_as_xyz
  'x,y,z'
loop_
_atom_site_label
_atom_site_fract_x
_atom_site_fract_y
_atom_site_fract_z
C 0.5 0.310515 0.666667
C 0.5 0.373677 0.833333
C 0.5 0.310515 0.333333
C 0.5 0.436838 0.666667
C 0.5 0.5 0.833333
C 0.5 0.373677 0.166667
C 0.5 0.436838 0.333333
C 0.5 0.563162 0.666667
C 0.5 0.626323 0.833333
C 0.5 0.5 0.166667
C 0.5 0.563162 0.333333
C 0.5 0.689485 0.666667
C 0.5 0.626323 0.166667
C 0.5 0.689485 0.333333
H 0.5 0.262032 0.794601
H 0.5 0.262032 0.205399
H 0.5 0.737968 0.794601
H 0.5 0.737968 0.205399
