data_global
_cell_length_a 10
_cell_length_b 24.39
_cell_length_c 4.26
_cell_angle_alpha 90
_cell_angle_beta 90
_cell_angle_gamma 90
_symmetry_space_group_name_H-M 'P -1'
loop_
_symmetry_equiv_pos_as_xyz
  'x,y,z'
loop_
_atom_site_label
_atom_site_fract_x
_atom_site_fract_y
_atom_site_fract_z
C 0.5 0.249831 0.658556
C 0.5 0.297974 0.83424
C 0.5 0.249831 0.341443
C 0.5 0.348378 0.666329
C 0.5 0.399018 0.833578
C 0.5 0.297974 0.165759
C 0.5 0.348378 0.333671
C 0.5 0.449452 0.666847
C 0.5 0.499995 0.833421
C 0.5 0.399018 0.166422
C 0.5 0.449452 0.333153
C 0.5 0.55054 0.666844
C 0.5 0.600976 0.833595
C 0.5 0.499995 0.16658
C 0.5 0.55054 0.333157
C 0.5 0.651621 0.666295
C 0.5 0.70203 0.834273
C 0.5 0.600976 0.166406
C 0.5 0.651621 0.333705
C 0.500001 0.750176 0.65851
C 0.5 0.70203 0.165727
C 0.5 0.750176 0.34149
F 0.5 0.198055 0.758542
F 0.500001 0.198055 0.241457
F 0.500002 0.801953 0.758545
F 0.499998 0.801953 0.241455
