data_global
_cell_length_a 10
_cell_length_b 30
_cell_length_c 12.78
_cell_angle_alpha 90
_cell_angle_beta 90
_cell_angle_gamma 90
_symmetry_space_group_name_H-M 'P -1'
loop_
_symmetry_equiv_pos_as_xyz
  'x,y,z'
loop_
_atom_site_label
_atom_site_fract_x
_atom_site_fract_y
_atom_site_fract_z
C 0.5 0.232487 0.219458
C 0.5 0.232003 0.553328
C 0.5 0.232751 0.887017
C 0.5 0.272807 0.277187
C 0.5 0.272401 0.611171
C 0.5 0.273227 0.9442
C 0.5 0.232751 0.112983
C 0.5 0.232003 0.446672
C 0.5 0.232487 0.780542
C 0.5 0.313915 0.221979
C 0.5 0.313508 0.556512
C 0.5 0.314175 0.88931
C 0.5 0.355044 0.278377
C 0.5 0.353459 0.613557
C 0.5 0.355635 0.944961
C 0.5 0.273227 0.0557995
C 0.5 0.272401 0.388829
C 0.5 0.272807 0.722813
C 0.5 0.314175 0.11069
C 0.5 0.313508 0.443488
C 0.5 0.313915 0.778021
C 0.5 0.397283 0.221798
C 0.5 0.397023 0.889207
C 0.5 0.438218 0.273353
C 0.5 0.438234 0.94419
C 0.5 0.355635 0.0550386
C 0.5 0.353459 0.386443
C 0.5 0.355044 0.721623
C 0.5 0.397023 0.110793
C 0.5 0.397283 0.778202
C 0.5 0.479195 0.221603
C 0.5 0.4795 0.889285
C 0.5 0.521333 0.278107
C 0.5 0.522798 0.613477
C 0.5 0.520944 0.944842
C 0.5 0.438234 0.0558101
C 0.5 0.438218 0.726646
C 0.5 0.4795 0.110715
C 0.5 0.479195 0.778397
C 0.5 0.562375 0.221946
C 0.5 0.562535 0.556532
C 0.5 0.562246 0.889293
C 0.5 0.603411 0.277508
C 0.5 0.603649 0.611323
C 0.5 0.60326 0.9444
C 0.5 0.520944 0.0551575
C 0.5 0.522798 0.386523
C 0.5 0.521333 0.721893
C 0.5 0.562246 0.110707
C 0.5 0.562535 0.443468
C 0.5 0.562375 0.778054
C 0.5 0.644606 0.22179
C 0.5 0.644775 0.555326
C 0.5 0.644498 0.888672
C 0.5 0.685846 0.277547
C 0.5 0.685933 0.610971
C 0.5 0.685748 0.944321
C 0.5 0.60326 0.0556
C 0.5 0.603649 0.388677
C 0.5 0.603411 0.722492
C 0.5 0.644498 0.111328
C 0.5 0.644775 0.444674
C 0.5 0.644606 0.778209
C 0.5 0.726824 0.222502
C 0.5 0.726966 0.555891
C 0.5 0.726762 0.889289
C 0.5 0.767153 0.279836
C 0.5 0.76723 0.613397
C 0.5 0.767063 0.94663
C 0.5 0.685748 0.0556789
C 0.5 0.685933 0.389029
C 0.5 0.685846 0.722453
C 0.5 0.726762 0.110711
C 0.5 0.726966 0.444109
C 0.5 0.726824 0.777498
C 0.5 0.767063 0.0533699
C 0.5 0.76723 0.386603
C 0.5 0.767153 0.720164
H 0.5 0.20059 0.259815
H 0.5 0.200103 0.593681
H 0.5 0.200983 0.927782
H 0.5 0.200983 0.0722182
H 0.5 0.200103 0.406319
H 0.5 0.20059 0.740185
H 0.5 0.798976 0.239246
H 0.5 0.799091 0.572934
H 0.5 0.798898 0.90607
H 0.5 0.798898 0.0939303
H 0.5 0.799091 0.427066
H 0.5 0.798976 0.760754
H 0.5 0.384664 0.57081
H 0.5 0.438326 0.358256
H 0.5 0.384664 0.42919
H 0.5 0.491547 0.570928
H 0.5 0.438326 0.641744
H 0.5 0.491547 0.429072
