data_global
_cell_length_a 10
_cell_length_b 21.0678
_cell_length_c 17.04
_cell_angle_alpha 90
_cell_angle_beta 90
_cell_angle_gamma 90
_symmetry_space_group_name_H-M 'P -1'
loop_
_symmetry_equiv_pos_as_xyz
  'x,y,z'
loop_
_atom_site_label
_atom_site_fract_x
_atom_site_fract_y
_atom_site_fract_z
C 0.5 0.287477 0.0401016
C 0.5 0.287642 0.290171
C 0.5 0.287769 0.540088
C 0.5 0.287561 0.790027
C 0.5 0.344719 0.0829932
C 0.5 0.34495 0.332983
C 0.5 0.34505 0.582941
C 0.5 0.344769 0.832963
C 0.5 0.287561 0.209973
C 0.5 0.287769 0.459912
C 0.5 0.287642 0.709829
C 0.5 0.287477 0.959898
C 0.5 0.403075 0.0417208
C 0.5 0.40327 0.291721
C 0.5 0.403433 0.541745
C 0.5 0.403162 0.791742
C 0.5 0.461872 0.0834331
C 0.5 0.462147 0.333421
C 0.5 0.462261 0.583502
C 0.5 0.461889 0.833536
C 0.5 0.344769 0.167037
C 0.5 0.345049 0.417059
C 0.5 0.34495 0.667017
C 0.5 0.344719 0.917007
C 0.5 0.403162 0.208258
C 0.5 0.403433 0.458255
C 0.5 0.40327 0.708279
C 0.5 0.403075 0.958279
C 0.5 0.520283 0.0417489
C 0.5 0.520514 0.291715
C 0.5 0.520786 0.541974
C 0.5 0.520354 0.791967
C 0.5 0.578722 0.083195
C 0.5 0.578945 0.333134
C 0.5 0.578968 0.583481
C 0.5 0.578561 0.833554
C 0.5 0.461889 0.166464
C 0.5 0.462261 0.416498
C 0.5 0.462147 0.666579
C 0.5 0.461872 0.916567
C 0.5 0.520354 0.208033
C 0.5 0.520786 0.458026
C 0.5 0.520514 0.708285
C 0.5 0.520283 0.958251
C 0.5 0.637346 0.0414196
C 0.5 0.637524 0.291179
C 0.5 0.63795 0.541756
C 0.5 0.637305 0.791955
C 0.5 0.696124 0.0827933
C 0.5 0.696488 0.332276
C 0.5 0.696296 0.583016
C 0.5 0.695512 0.833884
C 0.5 0.578561 0.166446
C 0.5 0.578968 0.416519
C 0.5 0.578945 0.666866
C 0.5 0.578722 0.916805
C 0.5 0.637305 0.208045
C 0.5 0.63795 0.458244
C 0.5 0.637524 0.708822
C 0.5 0.637346 0.95858
C 0.5 0.754957 0.0418485
C 0.5 0.752934 0.289929
C 0.5 0.753261 0.540236
C 0.5 0.753882 0.791865
C 0.5 0.812472 0.0858621
C 0.5 0.812037 0.83415
C 0.5 0.695512 0.166116
C 0.5 0.696296 0.416984
C 0.5 0.696488 0.667724
C 0.5 0.696124 0.917207
C 0.5 0.753882 0.208135
C 0.5 0.753261 0.459764
C 0.5 0.752934 0.710071
C 0.5 0.754957 0.958152
C 0.5 0.812037 0.16585
C 0.5 0.812472 0.914138
H 0.5 0.242099 0.0704217
H 0.5 0.242272 0.320516
H 0.5 0.242387 0.570412
H 0.5 0.242169 0.820318
H 0.5 0.242169 0.179682
H 0.5 0.242387 0.429588
H 0.5 0.242272 0.679484
H 0.5 0.242099 0.929578
H 0.5 0.798533 0.319902
H 0.5 0.7987 0.570448
H 0.5 0.857906 0.0555601
H 0.5 0.856486 0.801318
H 0.5 0.7987 0.429552
H 0.5 0.798533 0.680098
H 0.5 0.856486 0.198682
H 0.5 0.857906 0.94444
