data_global
_cell_length_a 10
_cell_length_b 34.23
_cell_length_c 4.26
_cell_angle_alpha 90
_cell_angle_beta 90
_cell_angle_gamma 90
_symmetry_space_group_name_H-M 'P -1'
loop_
_symmetry_equiv_pos_as_xyz
  'x,y,z'
loop_
_atom_site_label
_atom_site_fract_x
_atom_site_fract_y
_atom_site_fract_z
C 0.5 0.177032 0.66036
C 0.500001 0.212273 0.832026
C 0.5 0.177032 0.339641
C 0.500001 0.248175 0.666904
C 0.500001 0.284297 0.83395
C 0.500001 0.212273 0.167974
C 0.500001 0.248175 0.333096
C 0.5 0.320218 0.667085
C 0.5 0.356108 0.833176
C 0.500001 0.284298 0.16605
C 0.5 0.320218 0.332916
C 0.499999 0.392133 0.666448
C 0.499999 0.42811 0.833094
C 0.5 0.356108 0.166824
C 0.499999 0.392133 0.333552
C 0.499999 0.46402 0.666819
C 0.5 0.5 0.833538
C 0.499999 0.42811 0.166906
C 0.499999 0.46402 0.333181
C 0.5 0.53598 0.66682
C 0.5 0.57189 0.833093
C 0.499999 0.5 0.166462
C 0.5 0.53598 0.33318
C 0.5 0.607868 0.666448
C 0.5 0.643892 0.833177
C 0.5 0.57189 0.166907
C 0.5 0.607868 0.333552
C 0.5 0.679782 0.667084
C 0.5 0.715702 0.83395
C 0.5 0.643892 0.166823
C 0.5 0.679782 0.332916
C 0.5 0.751825 0.666905
C 0.5 0.787727 0.832025
C 0.5 0.715702 0.16605
C 0.5 0.751825 0.333095
C 0.5 0.822968 0.660363
C 0.5 0.787727 0.167975
C 0.5 0.822968 0.339637
H 0.5 0.149117 0.781778
H 0.5 0.149117 0.218223
H 0.5 0.850882 0.781776
H 0.5 0.850882 0.218223
