data_AGNR_OH_21
_audit_creation_method                 'DeviceStudio'
_symmetry_space_group_name_H-M         'P1'
_symmetry_Int_Tables_number            1
_symmetry_cell_setting                 Orthorhombic
loop_
_symmetry_equiv_pos_as_xyz
x,y,z
_cell_length_a                         10
_cell_length_b                         36.69
_cell_length_c                         4.26
_cell_angle_alpha                      90
_cell_angle_beta                       90
_cell_angle_gamma                      90
loop_
_atom_site_label
_atom_site_type_symbol
_atom_site_fract_x
_atom_site_fract_y
_atom_site_fract_z
C	C	0.5	0.164825	0.666667
C	C	0.5	0.198343	0.833333
C	C	0.5	0.164825	0.333333
C	C	0.5	0.23186	0.666667
C	C	0.5	0.265378	0.833333
C	C	0.5	0.198343	0.166667
C	C	0.5	0.23186	0.333333
C	C	0.5	0.298895	0.666667
C	C	0.5	0.332413	0.833333
C	C	0.5	0.265378	0.166667
C	C	0.5	0.298895	0.333333
C	C	0.5	0.36593	0.666667
C	C	0.5	0.399448	0.833333
C	C	0.5	0.332413	0.166667
C	C	0.5	0.36593	0.333333
C	C	0.5	0.432965	0.666667
C	C	0.5	0.466483	0.833333
C	C	0.5	0.399448	0.166667
C	C	0.5	0.432965	0.333333
C	C	0.5	0.5	0.666667
C	C	0.5	0.533517	0.833333
C	C	0.5	0.466483	0.166667
C	C	0.5	0.5	0.333333
C	C	0.5	0.567035	0.666667
C	C	0.5	0.600552	0.833333
C	C	0.5	0.533517	0.166667
C	C	0.5	0.567035	0.333333
C	C	0.5	0.63407	0.666667
C	C	0.5	0.667587	0.833333
C	C	0.5	0.600552	0.166667
C	C	0.5	0.63407	0.333333
C	C	0.5	0.701105	0.666667
C	C	0.5	0.734622	0.833333
C	C	0.5	0.667587	0.166667
C	C	0.5	0.701105	0.333333
C	C	0.5	0.76814	0.666667
C	C	0.5	0.801657	0.833333
C	C	0.5	0.734622	0.166667
C	C	0.5	0.76814	0.333333
C	C	0.5	0.835175	0.666667
C	C	0.5	0.801657	0.166667
C	C	0.5	0.835175	0.333333
O	O	0.44	0.129393	0.751174
O	O	0.55	0.129393	0.237089
O	O	0.55	0.870607	0.751174
O	O	0.44	0.870607	0.237089
H	H	0.527	0.11304	0.41784
H	H	0.4793	0.123942	0.962441
H	H	0.4793	0.876058	0.0375587
H	H	0.527	0.88696	0.581455
