data_global
_cell_length_a 10
_cell_length_b 30
_cell_length_c 21.3
_cell_angle_alpha 90
_cell_angle_beta 90
_cell_angle_gamma 90
_symmetry_space_group_name_H-M 'P -1'
loop_
_symmetry_equiv_pos_as_xyz
  'x,y,z'
loop_
_atom_site_label
_atom_site_fract_x
_atom_site_fract_y
_atom_site_fract_z
C 0.5 0.335934 0.331166
C 0.5 0.336064 0.531989
C 0.5 0.336204 0.732786
C 0.5 0.377728 0.168038
C 0.5 0.376329 0.366392
C 0.5 0.376353 0.566802
C 0.5 0.377049 0.766662
C 0.5 0.377604 0.967885
C 0.5 0.336204 0.267214
C 0.5 0.336064 0.468011
C 0.5 0.335934 0.668833
C 0.5 0.417526 0.134066
C 0.5 0.417659 0.333693
C 0.5 0.417473 0.53339
C 0.5 0.418061 0.732865
C 0.5 0.417718 0.933495
C 0.5 0.458887 0.16705
C 0.5 0.458847 0.367095
C 0.5 0.458811 0.566525
C 0.5 0.458949 0.766288
C 0.5 0.458769 0.96647
C 0.5 0.377604 0.0321148
C 0.5 0.377049 0.233338
C 0.5 0.376353 0.433198
C 0.5 0.376329 0.633609
C 0.5 0.377727 0.831962
C 0.5 0.417718 0.0665045
C 0.5 0.418061 0.267135
C 0.5 0.417473 0.46661
C 0.5 0.41766 0.666307
C 0.5 0.417526 0.865933
C 0.5 0.5 0.133495
C 0.5 0.5 0.333654
C 0.5 0.5 0.53323
C 0.5 0.5 0.732801
C 0.5 0.5 0.93303
C 0.5 0.541113 0.16705
C 0.5 0.541153 0.367095
C 0.5 0.541189 0.566525
C 0.5 0.541051 0.766288
C 0.5 0.541231 0.96647
C 0.5 0.458769 0.03353
C 0.5 0.458949 0.233712
C 0.5 0.458811 0.433475
C 0.5 0.458847 0.632906
C 0.5 0.458887 0.83295
C 0.5 0.5 0.0669703
C 0.5 0.5 0.2672
C 0.5 0.5 0.46677
C 0.5 0.5 0.666346
C 0.5 0.5 0.866505
C 0.5 0.582474 0.134066
C 0.5 0.582341 0.333693
C 0.5 0.582527 0.53339
C 0.5 0.581939 0.732865
C 0.5 0.582282 0.933495
C 0.5 0.622272 0.168038
C 0.5 0.623671 0.366392
C 0.5 0.623647 0.566802
C 0.5 0.622951 0.766662
C 0.5 0.622396 0.967885
C 0.5 0.541231 0.03353
C 0.5 0.541051 0.233712
C 0.5 0.541189 0.433475
C 0.5 0.541153 0.632906
C 0.5 0.541113 0.83295
C 0.5 0.582281 0.0665045
C 0.5 0.581939 0.267135
C 0.5 0.582527 0.46661
C 0.5 0.582341 0.666307
C 0.5 0.582474 0.865934
C 0.5 0.664066 0.331167
C 0.5 0.663936 0.531989
C 0.5 0.663796 0.732786
C 0.5 0.622396 0.0321148
C 0.5 0.622951 0.233338
C 0.5 0.623647 0.433198
C 0.5 0.623671 0.633609
C 0.5 0.622273 0.831962
C 0.5 0.663796 0.267214
C 0.5 0.663936 0.468011
C 0.5 0.664066 0.668833
H 0.5 0.304028 0.355377
H 0.5 0.30418 0.556212
H 0.5 0.304985 0.759016
H 0.5 0.304985 0.240984
H 0.5 0.304181 0.443788
H 0.5 0.304029 0.644622
H 0.5 0.695972 0.355377
H 0.5 0.69582 0.556212
H 0.5 0.695015 0.759016
H 0.5 0.695015 0.240984
H 0.5 0.695819 0.443788
H 0.5 0.695971 0.644622
H 0.5 0.345711 0.144024
H 0.5 0.345679 0.943727
H 0.5 0.34568 0.0562736
H 0.5 0.345711 0.855976
H 0.5 0.654289 0.144024
H 0.5 0.654321 0.943727
H 0.5 0.65432 0.0562737
H 0.5 0.654289 0.855976
