data_global
_cell_length_a 10
_cell_length_b 21.0678
_cell_length_c 17.04
_cell_angle_alpha 90
_cell_angle_beta 90
_cell_angle_gamma 90
_symmetry_space_group_name_H-M 'P -1'
loop_
_symmetry_equiv_pos_as_xyz
  'x,y,z'
loop_
_atom_site_label
_atom_site_fract_x
_atom_site_fract_y
_atom_site_fract_z
C 0.5 0.238683 0.166942
C 0.5 0.237696 0.415543
C 0.5 0.236141 0.666131
C 0.5 0.237031 0.917284
C 0.5 0.296161 0.209418
C 0.5 0.294628 0.45892
C 0.5 0.293301 0.709507
C 0.5 0.294581 0.959943
C 0.5 0.238208 0.0868871
C 0.5 0.23857 0.335472
C 0.5 0.236394 0.585862
C 0.5 0.236521 0.83709
C 0.5 0.354657 0.168277
C 0.5 0.353385 0.417844
C 0.5 0.351674 0.668122
C 0.5 0.352753 0.918438
C 0.5 0.413608 0.209753
C 0.5 0.411741 0.459638
C 0.5 0.410222 0.710068
C 0.5 0.411664 0.960099
C 0.5 0.295346 0.0438229
C 0.5 0.296204 0.293181
C 0.5 0.293813 0.542955
C 0.5 0.293589 0.79363
C 0.5 0.353975 0.0848444
C 0.5 0.354533 0.334434
C 0.5 0.351889 0.584511
C 0.5 0.352069 0.834896
C 0.5 0.472346 0.168116
C 0.5 0.470595 0.417958
C 0.5 0.468537 0.668351
C 0.5 0.469898 0.918166
C 0.5 0.531348 0.209123
C 0.5 0.528205 0.459836
C 0.5 0.526448 0.71042
C 0.5 0.528586 0.958974
C 0.5 0.412533 0.0430931
C 0.5 0.413883 0.292895
C 0.5 0.410701 0.542776
C 0.5 0.41062 0.793099
C 0.5 0.471396 0.0845458
C 0.5 0.47248 0.33436
C 0.5 0.468545 0.584829
C 0.5 0.46908 0.834883
C 0.5 0.589666 0.16651
C 0.5 0.587929 0.418871
C 0.5 0.584758 0.669149
C 0.5 0.586707 0.916462
C 0.5 0.649303 0.206982
C 0.499999 0.641473 0.465615
C 0.5 0.643719 0.709107
C 0.5 0.645809 0.956631
C 0.5 0.529514 0.0424467
C 0.5 0.532434 0.293157
C 0.5 0.526919 0.543374
C 0.5 0.527196 0.793263
C 0.5 0.588419 0.0832259
C 0.5 0.591386 0.334374
C 0.5 0.583919 0.587061
C 0.5 0.586105 0.833858
C 0.5 0.707077 0.162785
C 0.5 0.70232 0.666667
C 0.5 0.703963 0.914371
C 0.5 0.766579 0.199349
C 0.5 0.760869 0.707829
C 0.5 0.761767 0.955833
C 0.5 0.646514 0.0398125
C 0.5 0.65163 0.291045
C 0.5 0.642209 0.546547
C 0.5 0.644651 0.791699
C 0.5 0.705298 0.0790533
C 0.500001 0.714047 0.322758
C 0.5 0.700463 0.585689
C 0.5 0.703696 0.831179
C 0.5 0.762265 0.0355468
C 0.5 0.769414 0.279414
C 0.5 0.76132 0.787547
H 0.5 0.19345 0.197512
H 0.5 0.192069 0.445298
H 0.5 0.190613 0.696161
H 0.5 0.191763 0.947865
H 0.5 0.19274 0.0567808
H 0.5 0.193516 0.304493
H 0.5 0.191086 0.55535
H 0.5 0.190986 0.807062
H 0.5 0.810271 0.165855
H 0.5 0.804982 0.674324
H 0.5 0.806804 0.924876
H 0.5 0.808027 0.0646291
H 0.500001 0.814804 0.310175
H 0.5 0.806676 0.817849
H 0.499997 0.687946 0.442418
H 0.500003 0.725697 0.383515
H 0.5 0.744541 0.552024
