data_global
_cell_length_a 10
_cell_length_b 42.84
_cell_length_c 4.26
_cell_angle_alpha 90
_cell_angle_beta 90
_cell_angle_gamma 90
_symmetry_space_group_name_H-M 'P -1'
loop_
_symmetry_equiv_pos_as_xyz
  'x,y,z'
loop_
_atom_site_label
_atom_site_fract_x
_atom_site_fract_y
_atom_site_fract_z
C 0.480695 0.141432 0.657718
C 0.494404 0.168992 0.833237
C 0.514957 0.141857 0.344549
C 0.500932 0.197804 0.665998
C 0.501545 0.226662 0.8334
C 0.504976 0.169098 0.166282
C 0.499873 0.19788 0.333804
C 0.500635 0.255383 0.667079
C 0.500005 0.284155 0.833401
C 0.499213 0.226696 0.166406
C 0.499698 0.255397 0.332877
C 0.49989 0.312972 0.666736
C 0.499962 0.341729 0.833061
C 0.499985 0.284157 0.166594
C 0.500021 0.312973 0.333287
C 0.500003 0.370509 0.666657
C 0.500006 0.3993 0.833237
C 0.500007 0.341726 0.166955
C 0.500011 0.370503 0.333319
C 0.500006 0.428049 0.666814
C 0.500008 0.456825 0.833307
C 0.500013 0.399301 0.166725
C 0.500007 0.428052 0.333144
C 0.500006 0.485602 0.666792
C 0.500003 0.514358 0.83318
C 0.500002 0.45682 0.166667
C 0.500003 0.485606 0.333185
C 0.500002 0.543142 0.666651
C 0.500006 0.571913 0.833082
C 0.500006 0.514361 0.166786
C 0.500008 0.54314 0.333287
C 0.500011 0.600664 0.666557
C 0.500005 0.629471 0.832837
C 0.500005 0.571916 0.166769
C 0.500002 0.60067 0.333041
C 0.500008 0.658247 0.665992
C 0.500063 0.687019 0.831819
C 0.499997 0.629461 0.166188
C 0.499974 0.658255 0.332096
C 0.500047 0.71584 0.66475
C 0.499595 0.744626 0.830903
C 0.499947 0.687002 0.165233
C 0.500051 0.71583 0.331624
C 0.498798 0.773347 0.664439
C 0.499391 0.802225 0.831506
C 0.500483 0.7446 0.16512
C 0.501105 0.773315 0.331352
C 0.505676 0.83104 0.664147
C 0.518762 0.858641 0.839458
C 0.500511 0.802138 0.163802
C 0.495244 0.830936 0.331032
C 0.484676 0.858165 0.152596
O 0.440971 0.112236 0.747329
O 0.552918 0.112518 0.237984
O 0.445289 0.887436 0.258595
O 0.55687 0.887923 0.749058
H 0.479587 0.107232 0.962308
H 0.525607 0.0991699 0.419479
H 0.473028 0.900889 0.0782094
H 0.517093 0.892794 0.534615
