data_global
_cell_length_a 10
_cell_length_b 31.77
_cell_length_c 4.26
_cell_angle_alpha 90
_cell_angle_beta 90
_cell_angle_gamma 90
_symmetry_space_group_name_H-M 'P -1'
loop_
_symmetry_equiv_pos_as_xyz
  'x,y,z'
loop_
_atom_site_label
_atom_site_fract_x
_atom_site_fract_y
_atom_site_fract_z
C 0.48003 0.191131 0.657776
C 0.494163 0.228281 0.833129
C 0.514417 0.191688 0.344519
C 0.500905 0.26712 0.665915
C 0.501813 0.306033 0.833111
C 0.504462 0.228397 0.166323
C 0.499817 0.267227 0.333693
C 0.50111 0.344734 0.666945
C 0.50029 0.383563 0.833237
C 0.499469 0.30608 0.16641
C 0.499933 0.34477 0.332615
C 0.499884 0.422414 0.666569
C 0.499897 0.461164 0.832638
C 0.500155 0.383579 0.166303
C 0.50016 0.422435 0.332872
C 0.500026 0.499998 0.666105
C 0.500107 0.538833 0.832334
C 0.500109 0.461172 0.166595
C 0.500027 0.500005 0.332846
C 0.500168 0.577572 0.666017
C 0.500175 0.616429 0.832538
C 0.499894 0.538841 0.1663
C 0.49989 0.577594 0.332317
C 0.499946 0.65523 0.666168
C 0.499451 0.693917 0.832319
C 0.50031 0.616444 0.165591
C 0.501119 0.655275 0.331838
C 0.499772 0.732762 0.665001
C 0.504419 0.771584 0.832397
C 0.501793 0.693966 0.165613
C 0.500872 0.732878 0.332771
C 0.514436 0.808295 0.654288
C 0.494148 0.771724 0.165586
C 0.480088 0.80887 0.341011
O 0.440477 0.1518 0.747947
O 0.553189 0.152186 0.23802
O 0.553105 0.847786 0.761004
O 0.440573 0.848226 0.251225
H 0.52681 0.134063 0.419293
H 0.479269 0.145162 0.962952
H 0.479171 0.854877 0.0361006
H 0.526748 0.865892 0.579592
